*SPEF "ieee 1481-1999"
*DESIGN "user_project_wrapper"
*DATE "11:11:11 Fri 11 11, 1111"
*VENDOR "OpenRCX"
*PROGRAM "Parallel Extraction"
*VERSION "1.0"
*DESIGN_FLOW "NAME_SCOPE LOCAL" "PIN_CAP NONE"
*DIVIDER /
*DELIMITER :
*BUS_DELIMITER []
*T_UNIT 1 NS
*C_UNIT 1 PF
*R_UNIT 1 OHM
*L_UNIT 1 HENRY

*NAME_MAP
*1 io_in[0]
*2 io_in[10]
*3 io_in[11]
*4 io_in[12]
*5 io_in[13]
*6 io_in[14]
*7 io_in[15]
*8 io_in[16]
*9 io_in[17]
*10 io_in[18]
*11 io_in[19]
*12 io_in[1]
*13 io_in[20]
*14 io_in[21]
*15 io_in[22]
*16 io_in[23]
*17 io_in[24]
*18 io_in[25]
*19 io_in[26]
*20 io_in[27]
*21 io_in[28]
*22 io_in[29]
*23 io_in[2]
*24 io_in[30]
*25 io_in[31]
*26 io_in[32]
*27 io_in[33]
*28 io_in[34]
*29 io_in[35]
*30 io_in[36]
*31 io_in[37]
*32 io_in[3]
*33 io_in[4]
*34 io_in[5]
*35 io_in[6]
*36 io_in[7]
*37 io_in[8]
*38 io_in[9]
*39 io_oeb[0]
*40 io_oeb[10]
*41 io_oeb[11]
*42 io_oeb[12]
*43 io_oeb[13]
*44 io_oeb[14]
*45 io_oeb[15]
*46 io_oeb[16]
*47 io_oeb[17]
*48 io_oeb[18]
*49 io_oeb[19]
*50 io_oeb[1]
*51 io_oeb[20]
*52 io_oeb[21]
*53 io_oeb[22]
*54 io_oeb[23]
*55 io_oeb[24]
*56 io_oeb[25]
*57 io_oeb[26]
*58 io_oeb[27]
*59 io_oeb[28]
*60 io_oeb[29]
*61 io_oeb[2]
*62 io_oeb[30]
*63 io_oeb[31]
*64 io_oeb[32]
*65 io_oeb[33]
*66 io_oeb[34]
*67 io_oeb[35]
*68 io_oeb[36]
*69 io_oeb[37]
*70 io_oeb[3]
*71 io_oeb[4]
*72 io_oeb[5]
*73 io_oeb[6]
*74 io_oeb[7]
*75 io_oeb[8]
*76 io_oeb[9]
*77 io_out[0]
*78 io_out[10]
*79 io_out[11]
*80 io_out[12]
*81 io_out[13]
*82 io_out[14]
*83 io_out[15]
*84 io_out[16]
*85 io_out[17]
*86 io_out[18]
*87 io_out[19]
*88 io_out[1]
*89 io_out[20]
*90 io_out[21]
*91 io_out[22]
*92 io_out[23]
*93 io_out[24]
*94 io_out[25]
*95 io_out[26]
*96 io_out[27]
*97 io_out[28]
*98 io_out[29]
*99 io_out[2]
*100 io_out[30]
*101 io_out[31]
*102 io_out[32]
*103 io_out[33]
*104 io_out[34]
*105 io_out[35]
*106 io_out[36]
*107 io_out[37]
*108 io_out[3]
*109 io_out[4]
*110 io_out[5]
*111 io_out[6]
*112 io_out[7]
*113 io_out[8]
*114 io_out[9]
*115 la_data_in[0]
*116 la_data_in[10]
*117 la_data_in[11]
*118 la_data_in[12]
*119 la_data_in[13]
*120 la_data_in[14]
*121 la_data_in[15]
*122 la_data_in[16]
*123 la_data_in[17]
*124 la_data_in[18]
*125 la_data_in[19]
*126 la_data_in[1]
*127 la_data_in[20]
*128 la_data_in[21]
*129 la_data_in[22]
*130 la_data_in[23]
*131 la_data_in[24]
*132 la_data_in[25]
*133 la_data_in[26]
*134 la_data_in[27]
*135 la_data_in[28]
*136 la_data_in[29]
*137 la_data_in[2]
*138 la_data_in[30]
*139 la_data_in[31]
*140 la_data_in[32]
*141 la_data_in[33]
*142 la_data_in[34]
*143 la_data_in[35]
*144 la_data_in[36]
*145 la_data_in[37]
*146 la_data_in[38]
*147 la_data_in[39]
*148 la_data_in[3]
*149 la_data_in[40]
*150 la_data_in[41]
*151 la_data_in[42]
*152 la_data_in[43]
*153 la_data_in[44]
*154 la_data_in[45]
*155 la_data_in[46]
*156 la_data_in[47]
*157 la_data_in[48]
*158 la_data_in[49]
*159 la_data_in[4]
*160 la_data_in[50]
*161 la_data_in[51]
*162 la_data_in[52]
*163 la_data_in[53]
*164 la_data_in[54]
*165 la_data_in[55]
*166 la_data_in[56]
*167 la_data_in[57]
*168 la_data_in[58]
*169 la_data_in[59]
*170 la_data_in[5]
*171 la_data_in[60]
*172 la_data_in[61]
*173 la_data_in[62]
*174 la_data_in[63]
*175 la_data_in[6]
*176 la_data_in[7]
*177 la_data_in[8]
*178 la_data_in[9]
*179 la_data_out[0]
*180 la_data_out[10]
*181 la_data_out[11]
*182 la_data_out[12]
*183 la_data_out[13]
*184 la_data_out[14]
*185 la_data_out[15]
*186 la_data_out[16]
*187 la_data_out[17]
*188 la_data_out[18]
*189 la_data_out[19]
*190 la_data_out[1]
*191 la_data_out[20]
*192 la_data_out[21]
*193 la_data_out[22]
*194 la_data_out[23]
*195 la_data_out[24]
*196 la_data_out[25]
*197 la_data_out[26]
*198 la_data_out[27]
*199 la_data_out[28]
*200 la_data_out[29]
*201 la_data_out[2]
*202 la_data_out[30]
*203 la_data_out[31]
*204 la_data_out[32]
*205 la_data_out[33]
*206 la_data_out[34]
*207 la_data_out[35]
*208 la_data_out[36]
*209 la_data_out[37]
*210 la_data_out[38]
*211 la_data_out[39]
*212 la_data_out[3]
*213 la_data_out[40]
*214 la_data_out[41]
*215 la_data_out[42]
*216 la_data_out[43]
*217 la_data_out[44]
*218 la_data_out[45]
*219 la_data_out[46]
*220 la_data_out[47]
*221 la_data_out[48]
*222 la_data_out[49]
*223 la_data_out[4]
*224 la_data_out[50]
*225 la_data_out[51]
*226 la_data_out[52]
*227 la_data_out[53]
*228 la_data_out[54]
*229 la_data_out[55]
*230 la_data_out[56]
*231 la_data_out[57]
*232 la_data_out[58]
*233 la_data_out[59]
*234 la_data_out[5]
*235 la_data_out[60]
*236 la_data_out[61]
*237 la_data_out[62]
*238 la_data_out[63]
*239 la_data_out[6]
*240 la_data_out[7]
*241 la_data_out[8]
*242 la_data_out[9]
*243 la_oenb[0]
*244 la_oenb[10]
*245 la_oenb[11]
*246 la_oenb[12]
*247 la_oenb[13]
*248 la_oenb[14]
*249 la_oenb[15]
*250 la_oenb[16]
*251 la_oenb[17]
*252 la_oenb[18]
*253 la_oenb[19]
*254 la_oenb[1]
*255 la_oenb[20]
*256 la_oenb[21]
*257 la_oenb[22]
*258 la_oenb[23]
*259 la_oenb[24]
*260 la_oenb[25]
*261 la_oenb[26]
*262 la_oenb[27]
*263 la_oenb[28]
*264 la_oenb[29]
*265 la_oenb[2]
*266 la_oenb[30]
*267 la_oenb[31]
*268 la_oenb[32]
*269 la_oenb[33]
*270 la_oenb[34]
*271 la_oenb[35]
*272 la_oenb[36]
*273 la_oenb[37]
*274 la_oenb[38]
*275 la_oenb[39]
*276 la_oenb[3]
*277 la_oenb[40]
*278 la_oenb[41]
*279 la_oenb[42]
*280 la_oenb[43]
*281 la_oenb[44]
*282 la_oenb[45]
*283 la_oenb[46]
*284 la_oenb[47]
*285 la_oenb[48]
*286 la_oenb[49]
*287 la_oenb[4]
*288 la_oenb[50]
*289 la_oenb[51]
*290 la_oenb[52]
*291 la_oenb[53]
*292 la_oenb[54]
*293 la_oenb[55]
*294 la_oenb[56]
*295 la_oenb[57]
*296 la_oenb[58]
*297 la_oenb[59]
*298 la_oenb[5]
*299 la_oenb[60]
*300 la_oenb[61]
*301 la_oenb[62]
*302 la_oenb[63]
*303 la_oenb[6]
*304 la_oenb[7]
*305 la_oenb[8]
*306 la_oenb[9]
*307 user_clock2
*308 user_irq[0]
*309 user_irq[1]
*310 user_irq[2]
*313 wb_clk_i
*314 wb_rst_i
*315 wbs_ack_o
*316 wbs_adr_i[0]
*317 wbs_adr_i[10]
*318 wbs_adr_i[11]
*319 wbs_adr_i[12]
*320 wbs_adr_i[13]
*321 wbs_adr_i[14]
*322 wbs_adr_i[15]
*323 wbs_adr_i[16]
*324 wbs_adr_i[17]
*325 wbs_adr_i[18]
*326 wbs_adr_i[19]
*327 wbs_adr_i[1]
*328 wbs_adr_i[20]
*329 wbs_adr_i[21]
*330 wbs_adr_i[22]
*331 wbs_adr_i[23]
*332 wbs_adr_i[24]
*333 wbs_adr_i[25]
*334 wbs_adr_i[26]
*335 wbs_adr_i[27]
*336 wbs_adr_i[28]
*337 wbs_adr_i[29]
*338 wbs_adr_i[2]
*339 wbs_adr_i[30]
*340 wbs_adr_i[31]
*341 wbs_adr_i[3]
*342 wbs_adr_i[4]
*343 wbs_adr_i[5]
*344 wbs_adr_i[6]
*345 wbs_adr_i[7]
*346 wbs_adr_i[8]
*347 wbs_adr_i[9]
*348 wbs_cyc_i
*349 wbs_dat_i[0]
*350 wbs_dat_i[10]
*351 wbs_dat_i[11]
*352 wbs_dat_i[12]
*353 wbs_dat_i[13]
*354 wbs_dat_i[14]
*355 wbs_dat_i[15]
*356 wbs_dat_i[16]
*357 wbs_dat_i[17]
*358 wbs_dat_i[18]
*359 wbs_dat_i[19]
*360 wbs_dat_i[1]
*361 wbs_dat_i[20]
*362 wbs_dat_i[21]
*363 wbs_dat_i[22]
*364 wbs_dat_i[23]
*365 wbs_dat_i[24]
*366 wbs_dat_i[25]
*367 wbs_dat_i[26]
*368 wbs_dat_i[27]
*369 wbs_dat_i[28]
*370 wbs_dat_i[29]
*371 wbs_dat_i[2]
*372 wbs_dat_i[30]
*373 wbs_dat_i[31]
*374 wbs_dat_i[3]
*375 wbs_dat_i[4]
*376 wbs_dat_i[5]
*377 wbs_dat_i[6]
*378 wbs_dat_i[7]
*379 wbs_dat_i[8]
*380 wbs_dat_i[9]
*381 wbs_dat_o[0]
*382 wbs_dat_o[10]
*383 wbs_dat_o[11]
*384 wbs_dat_o[12]
*385 wbs_dat_o[13]
*386 wbs_dat_o[14]
*387 wbs_dat_o[15]
*388 wbs_dat_o[16]
*389 wbs_dat_o[17]
*390 wbs_dat_o[18]
*391 wbs_dat_o[19]
*392 wbs_dat_o[1]
*393 wbs_dat_o[20]
*394 wbs_dat_o[21]
*395 wbs_dat_o[22]
*396 wbs_dat_o[23]
*397 wbs_dat_o[24]
*398 wbs_dat_o[25]
*399 wbs_dat_o[26]
*400 wbs_dat_o[27]
*401 wbs_dat_o[28]
*402 wbs_dat_o[29]
*403 wbs_dat_o[2]
*404 wbs_dat_o[30]
*405 wbs_dat_o[31]
*406 wbs_dat_o[3]
*407 wbs_dat_o[4]
*408 wbs_dat_o[5]
*409 wbs_dat_o[6]
*410 wbs_dat_o[7]
*411 wbs_dat_o[8]
*412 wbs_dat_o[9]
*413 wbs_sel_i[0]
*414 wbs_sel_i[1]
*415 wbs_sel_i[2]
*416 wbs_sel_i[3]
*417 wbs_stb_i
*418 wbs_we_i
*419 mprj

*PORTS
io_in[0] I
io_in[10] I
io_in[11] I
io_in[12] I
io_in[13] I
io_in[14] I
io_in[15] I
io_in[16] I
io_in[17] I
io_in[18] I
io_in[19] I
io_in[1] I
io_in[20] I
io_in[21] I
io_in[22] I
io_in[23] I
io_in[24] I
io_in[25] I
io_in[26] I
io_in[27] I
io_in[28] I
io_in[29] I
io_in[2] I
io_in[30] I
io_in[31] I
io_in[32] I
io_in[33] I
io_in[34] I
io_in[35] I
io_in[36] I
io_in[37] I
io_in[3] I
io_in[4] I
io_in[5] I
io_in[6] I
io_in[7] I
io_in[8] I
io_in[9] I
io_oeb[0] O
io_oeb[10] O
io_oeb[11] O
io_oeb[12] O
io_oeb[13] O
io_oeb[14] O
io_oeb[15] O
io_oeb[16] O
io_oeb[17] O
io_oeb[18] O
io_oeb[19] O
io_oeb[1] O
io_oeb[20] O
io_oeb[21] O
io_oeb[22] O
io_oeb[23] O
io_oeb[24] O
io_oeb[25] O
io_oeb[26] O
io_oeb[27] O
io_oeb[28] O
io_oeb[29] O
io_oeb[2] O
io_oeb[30] O
io_oeb[31] O
io_oeb[32] O
io_oeb[33] O
io_oeb[34] O
io_oeb[35] O
io_oeb[36] O
io_oeb[37] O
io_oeb[3] O
io_oeb[4] O
io_oeb[5] O
io_oeb[6] O
io_oeb[7] O
io_oeb[8] O
io_oeb[9] O
io_out[0] O
io_out[10] O
io_out[11] O
io_out[12] O
io_out[13] O
io_out[14] O
io_out[15] O
io_out[16] O
io_out[17] O
io_out[18] O
io_out[19] O
io_out[1] O
io_out[20] O
io_out[21] O
io_out[22] O
io_out[23] O
io_out[24] O
io_out[25] O
io_out[26] O
io_out[27] O
io_out[28] O
io_out[29] O
io_out[2] O
io_out[30] O
io_out[31] O
io_out[32] O
io_out[33] O
io_out[34] O
io_out[35] O
io_out[36] O
io_out[37] O
io_out[3] O
io_out[4] O
io_out[5] O
io_out[6] O
io_out[7] O
io_out[8] O
io_out[9] O
la_data_in[0] I
la_data_in[10] I
la_data_in[11] I
la_data_in[12] I
la_data_in[13] I
la_data_in[14] I
la_data_in[15] I
la_data_in[16] I
la_data_in[17] I
la_data_in[18] I
la_data_in[19] I
la_data_in[1] I
la_data_in[20] I
la_data_in[21] I
la_data_in[22] I
la_data_in[23] I
la_data_in[24] I
la_data_in[25] I
la_data_in[26] I
la_data_in[27] I
la_data_in[28] I
la_data_in[29] I
la_data_in[2] I
la_data_in[30] I
la_data_in[31] I
la_data_in[32] I
la_data_in[33] I
la_data_in[34] I
la_data_in[35] I
la_data_in[36] I
la_data_in[37] I
la_data_in[38] I
la_data_in[39] I
la_data_in[3] I
la_data_in[40] I
la_data_in[41] I
la_data_in[42] I
la_data_in[43] I
la_data_in[44] I
la_data_in[45] I
la_data_in[46] I
la_data_in[47] I
la_data_in[48] I
la_data_in[49] I
la_data_in[4] I
la_data_in[50] I
la_data_in[51] I
la_data_in[52] I
la_data_in[53] I
la_data_in[54] I
la_data_in[55] I
la_data_in[56] I
la_data_in[57] I
la_data_in[58] I
la_data_in[59] I
la_data_in[5] I
la_data_in[60] I
la_data_in[61] I
la_data_in[62] I
la_data_in[63] I
la_data_in[6] I
la_data_in[7] I
la_data_in[8] I
la_data_in[9] I
la_data_out[0] O
la_data_out[10] O
la_data_out[11] O
la_data_out[12] O
la_data_out[13] O
la_data_out[14] O
la_data_out[15] O
la_data_out[16] O
la_data_out[17] O
la_data_out[18] O
la_data_out[19] O
la_data_out[1] O
la_data_out[20] O
la_data_out[21] O
la_data_out[22] O
la_data_out[23] O
la_data_out[24] O
la_data_out[25] O
la_data_out[26] O
la_data_out[27] O
la_data_out[28] O
la_data_out[29] O
la_data_out[2] O
la_data_out[30] O
la_data_out[31] O
la_data_out[32] O
la_data_out[33] O
la_data_out[34] O
la_data_out[35] O
la_data_out[36] O
la_data_out[37] O
la_data_out[38] O
la_data_out[39] O
la_data_out[3] O
la_data_out[40] O
la_data_out[41] O
la_data_out[42] O
la_data_out[43] O
la_data_out[44] O
la_data_out[45] O
la_data_out[46] O
la_data_out[47] O
la_data_out[48] O
la_data_out[49] O
la_data_out[4] O
la_data_out[50] O
la_data_out[51] O
la_data_out[52] O
la_data_out[53] O
la_data_out[54] O
la_data_out[55] O
la_data_out[56] O
la_data_out[57] O
la_data_out[58] O
la_data_out[59] O
la_data_out[5] O
la_data_out[60] O
la_data_out[61] O
la_data_out[62] O
la_data_out[63] O
la_data_out[6] O
la_data_out[7] O
la_data_out[8] O
la_data_out[9] O
la_oenb[0] I
la_oenb[10] I
la_oenb[11] I
la_oenb[12] I
la_oenb[13] I
la_oenb[14] I
la_oenb[15] I
la_oenb[16] I
la_oenb[17] I
la_oenb[18] I
la_oenb[19] I
la_oenb[1] I
la_oenb[20] I
la_oenb[21] I
la_oenb[22] I
la_oenb[23] I
la_oenb[24] I
la_oenb[25] I
la_oenb[26] I
la_oenb[27] I
la_oenb[28] I
la_oenb[29] I
la_oenb[2] I
la_oenb[30] I
la_oenb[31] I
la_oenb[32] I
la_oenb[33] I
la_oenb[34] I
la_oenb[35] I
la_oenb[36] I
la_oenb[37] I
la_oenb[38] I
la_oenb[39] I
la_oenb[3] I
la_oenb[40] I
la_oenb[41] I
la_oenb[42] I
la_oenb[43] I
la_oenb[44] I
la_oenb[45] I
la_oenb[46] I
la_oenb[47] I
la_oenb[48] I
la_oenb[49] I
la_oenb[4] I
la_oenb[50] I
la_oenb[51] I
la_oenb[52] I
la_oenb[53] I
la_oenb[54] I
la_oenb[55] I
la_oenb[56] I
la_oenb[57] I
la_oenb[58] I
la_oenb[59] I
la_oenb[5] I
la_oenb[60] I
la_oenb[61] I
la_oenb[62] I
la_oenb[63] I
la_oenb[6] I
la_oenb[7] I
la_oenb[8] I
la_oenb[9] I
user_clock2 I
user_irq[0] O
user_irq[1] O
user_irq[2] O
wb_clk_i I
wb_rst_i I
wbs_ack_o O
wbs_adr_i[0] I
wbs_adr_i[10] I
wbs_adr_i[11] I
wbs_adr_i[12] I
wbs_adr_i[13] I
wbs_adr_i[14] I
wbs_adr_i[15] I
wbs_adr_i[16] I
wbs_adr_i[17] I
wbs_adr_i[18] I
wbs_adr_i[19] I
wbs_adr_i[1] I
wbs_adr_i[20] I
wbs_adr_i[21] I
wbs_adr_i[22] I
wbs_adr_i[23] I
wbs_adr_i[24] I
wbs_adr_i[25] I
wbs_adr_i[26] I
wbs_adr_i[27] I
wbs_adr_i[28] I
wbs_adr_i[29] I
wbs_adr_i[2] I
wbs_adr_i[30] I
wbs_adr_i[31] I
wbs_adr_i[3] I
wbs_adr_i[4] I
wbs_adr_i[5] I
wbs_adr_i[6] I
wbs_adr_i[7] I
wbs_adr_i[8] I
wbs_adr_i[9] I
wbs_cyc_i I
wbs_dat_i[0] I
wbs_dat_i[10] I
wbs_dat_i[11] I
wbs_dat_i[12] I
wbs_dat_i[13] I
wbs_dat_i[14] I
wbs_dat_i[15] I
wbs_dat_i[16] I
wbs_dat_i[17] I
wbs_dat_i[18] I
wbs_dat_i[19] I
wbs_dat_i[1] I
wbs_dat_i[20] I
wbs_dat_i[21] I
wbs_dat_i[22] I
wbs_dat_i[23] I
wbs_dat_i[24] I
wbs_dat_i[25] I
wbs_dat_i[26] I
wbs_dat_i[27] I
wbs_dat_i[28] I
wbs_dat_i[29] I
wbs_dat_i[2] I
wbs_dat_i[30] I
wbs_dat_i[31] I
wbs_dat_i[3] I
wbs_dat_i[4] I
wbs_dat_i[5] I
wbs_dat_i[6] I
wbs_dat_i[7] I
wbs_dat_i[8] I
wbs_dat_i[9] I
wbs_dat_o[0] O
wbs_dat_o[10] O
wbs_dat_o[11] O
wbs_dat_o[12] O
wbs_dat_o[13] O
wbs_dat_o[14] O
wbs_dat_o[15] O
wbs_dat_o[16] O
wbs_dat_o[17] O
wbs_dat_o[18] O
wbs_dat_o[19] O
wbs_dat_o[1] O
wbs_dat_o[20] O
wbs_dat_o[21] O
wbs_dat_o[22] O
wbs_dat_o[23] O
wbs_dat_o[24] O
wbs_dat_o[25] O
wbs_dat_o[26] O
wbs_dat_o[27] O
wbs_dat_o[28] O
wbs_dat_o[29] O
wbs_dat_o[2] O
wbs_dat_o[30] O
wbs_dat_o[31] O
wbs_dat_o[3] O
wbs_dat_o[4] O
wbs_dat_o[5] O
wbs_dat_o[6] O
wbs_dat_o[7] O
wbs_dat_o[8] O
wbs_dat_o[9] O
wbs_sel_i[0] I
wbs_sel_i[1] I
wbs_sel_i[2] I
wbs_sel_i[3] I
wbs_stb_i I
wbs_we_i I

*D_NET *1 0.161279
*CONN
*P io_in[0] I
*I *419:io_in[0] I *D user_proj_example
*CAP
1 io_in[0] 0.00652408
2 *419:io_in[0] 0.000799581
3 *1:9 0.0251756
4 *1:7 0.024376
5 *1:5 0.00652408
6 *419:io_in[0] *33:15 0.000237745
7 *1:9 la_data_out[61] 0.000777274
8 *1:9 *12:9 0.00813885
9 *1:9 *33:17 1.86731e-05
10 *1:9 *39:9 0
11 *1:9 *50:9 0.0887073
*RES
1 io_in[0] *1:5 51.705 
2 *1:5 *1:7 4.5 
3 *1:7 *1:9 326.07 
4 *1:9 *419:io_in[0] 10.305 
*END

*D_NET *12 0.233396
*CONN
*P io_in[1] I
*I *419:io_in[1] I *D user_proj_example
*CAP
1 io_in[1] 0.00649064
2 *419:io_in[1] 0.000937951
3 *12:9 0.0059807
4 *12:7 0.00504275
5 *12:5 0.00649064
6 *12:9 *23:9 0.00166455
7 *12:9 *32:9 0.00807349
8 *12:9 *39:9 0.00222809
9 *12:9 *50:9 0.117513
10 *12:9 *61:9 0.00281047
11 *12:9 *70:9 0.0660537
12 *12:9 *99:9 0.0019709
13 *1:9 *12:9 0.00813885
*RES
1 io_in[1] *12:5 51.345 
2 *12:5 *12:7 4.5 
3 *12:7 *12:9 333.63 
4 *12:9 *419:io_in[1] 10.665 
*END

*D_NET *23 0.264314
*CONN
*P io_in[2] I
*I *419:io_in[2] I *D user_proj_example
*CAP
1 io_in[2] 0.00639967
2 *419:io_in[2] 0.00113048
3 *23:9 0.00838357
4 *23:7 0.00725308
5 *23:5 0.00639967
6 *23:9 *34:9 0.00476085
7 *23:9 *39:9 0.0993006
8 *23:9 *71:9 0
9 *23:9 *99:9 0.129021
10 *12:9 *23:9 0.00166455
*RES
1 io_in[2] *23:5 50.445 
2 *23:5 *23:7 4.5 
3 *23:7 *23:9 341.19 
4 *23:9 *419:io_in[2] 11.565 
*END

*D_NET *24 0.290014
*CONN
*P io_in[30] I
*I *419:io_in[8] I *D user_proj_example
*CAP
1 io_in[30] 0.0396247
2 *419:io_in[8] 0.000674043
3 *24:9 0.0215501
4 *24:7 0.0208761
5 *24:5 0.0396247
6 *24:9 *28:9 0.0255568
7 *24:9 *62:9 0.121525
8 *24:9 *63:9 0.0205819
*RES
1 io_in[30] *24:5 316.665 
2 *24:5 *24:7 4.5 
3 *24:7 *24:9 348.57 
4 *24:9 *419:io_in[8] 8.865 
*END

*D_NET *25 0.307494
*CONN
*P io_in[31] I
*I *419:io_in[9] I *D user_proj_example
*CAP
1 io_in[31] 0.0397425
2 *419:io_in[9] 0.000471241
3 *25:9 0.00876884
4 *25:7 0.0082976
5 *25:5 0.0397425
6 *25:9 *26:9 0.110551
7 *25:9 *27:9 0.0818461
8 *25:9 *62:9 0.0135865
9 *25:9 *64:9 0.00448743
*RES
1 io_in[31] *25:5 317.205 
2 *25:5 *25:7 4.5 
3 *25:7 *25:9 345.33 
4 *25:9 *419:io_in[9] 8.325 
*END

*D_NET *26 0.353978
*CONN
*P io_in[32] I
*I *419:io_in[10] I *D user_proj_example
*CAP
1 io_in[32] 0.0397117
2 *419:io_in[10] 0.000509747
3 *26:9 0.00147399
4 *26:7 0.000964242
5 *26:5 0.0397117
6 *26:9 *27:9 0.00215639
7 *26:9 *29:9 0.00194573
8 *26:9 *30:9 0.0229806
9 *26:9 *62:9 0.101436
10 *26:9 *67:9 0.0325367
11 *25:9 *26:9 0.110551
*RES
1 io_in[32] *26:5 317.025 
2 *26:5 *26:7 4.5 
3 *26:7 *26:9 342.09 
4 *26:9 *419:io_in[10] 8.505 
*END

*D_NET *27 0.348879
*CONN
*P io_in[33] I
*I *419:io_in[11] I *D user_proj_example
*CAP
1 io_in[33] 0.0398056
2 *419:io_in[11] 0.000466588
3 *27:9 0.00148617
4 *27:7 0.00101958
5 *27:5 0.0398056
6 *27:9 *30:9 0.0503908
7 *27:9 *64:9 0.127622
8 *27:9 *65:9 0.00427988
9 *25:9 *27:9 0.0818461
10 *26:9 *27:9 0.00215639
*RES
1 io_in[33] *27:5 317.385 
2 *27:5 *27:7 4.5 
3 *27:7 *27:9 338.85 
4 *27:9 *419:io_in[11] 8.145 
*END

*D_NET *28 0.257716
*CONN
*P io_in[34] I
*I *419:io_in[12] I *D user_proj_example
*CAP
1 io_in[34] 0.0399908
2 *419:io_in[12] 0.000685238
3 *28:9 0.02215
4 *28:7 0.0214648
5 *28:5 0.0399908
6 *28:9 *29:9 0.106376
7 *28:9 *62:9 0.00150118
8 *24:9 *28:9 0.0255568
*RES
1 io_in[34] *28:5 316.485 
2 *28:5 *28:7 4.5 
3 *28:7 *28:9 335.61 
4 *28:9 *419:io_in[12] 9.045 
*END

*D_NET *29 0.340122
*CONN
*P io_in[35] I
*I *419:io_in[13] I *D user_proj_example
*CAP
1 io_in[35] 0.0402699
2 *419:io_in[13] 0.000758314
3 *29:9 0.00610716
4 *29:7 0.00534885
5 *29:5 0.0402699
6 *29:9 *62:9 0.0151375
7 *29:9 *63:9 0.00940836
8 *29:9 *67:9 0.1145
9 *26:9 *29:9 0.00194573
10 *28:9 *29:9 0.106376
*RES
1 io_in[35] *29:5 316.665 
2 *29:5 *29:7 4.5 
3 *29:7 *29:9 332.37 
4 *29:9 *419:io_in[13] 8.865 
*END

*D_NET *30 0.291961
*CONN
*P io_in[36] I
*I *419:io_in[14] I *D user_proj_example
*CAP
1 io_in[36] 0.0405748
2 *419:io_in[14] 0.000538948
3 *30:9 0.00963561
4 *30:7 0.00909666
5 *30:5 0.0405748
6 *30:9 *31:9 0.103492
7 *30:9 *65:9 0.00575316
8 *30:9 *66:9 0.00621671
9 *30:9 *67:9 0.00270667
10 *26:9 *30:9 0.0229806
11 *27:9 *30:9 0.0503908
*RES
1 io_in[36] *30:5 317.205 
2 *30:5 *30:7 4.5 
3 *30:7 *30:9 329.13 
4 *30:9 *419:io_in[14] 8.325 
*END

*D_NET *31 0.302366
*CONN
*P io_in[37] I
*I *419:io_in[15] I *D user_proj_example
*CAP
1 io_in[37] 0.0406912
2 *419:io_in[15] 0.000577454
3 *31:9 0.0115703
4 *31:7 0.0109928
5 *31:5 0.0406912
6 *31:5 *364:9 0
7 *31:9 *67:9 0.0943513
8 *30:9 *31:9 0.103492
*RES
1 io_in[37] *31:5 317.025 
2 *31:5 *31:7 4.5 
3 *31:7 *31:9 325.89 
4 *31:9 *419:io_in[15] 8.505 
*END

*D_NET *32 0.282832
*CONN
*P io_in[3] I
*I *419:io_in[3] I *D user_proj_example
*CAP
1 io_in[3] 0.00649804
2 *419:io_in[3] 0.00103191
3 *32:9 0.00354921
4 *32:7 0.0025173
5 *32:5 0.00649804
6 *32:9 *61:9 0.131107
7 *32:9 *70:9 0.123557
8 *12:9 *32:9 0.00807349
*RES
1 io_in[3] *32:5 50.985 
2 *32:5 *32:7 4.5 
3 *32:7 *32:9 348.75 
4 *32:9 *419:io_in[3] 11.025 
*END

*D_NET *33 0.185161
*CONN
*P io_in[4] I
*I *419:io_in[4] I *D user_proj_example
*CAP
1 io_in[4] 0.00636787
2 *419:io_in[4] 0.000813158
3 *33:17 0.0110182
4 *33:15 0.0105857
5 *33:9 0.00920347
6 *33:7 0.00882276
7 *33:5 0.00636787
8 *33:9 *34:9 0.00284162
9 *33:9 *39:9 0.00598344
10 *33:17 *34:17 0.096495
11 *33:17 *36:9 0.00166398
12 *33:17 *50:9 0.0111691
13 *33:17 *70:9 4.22576e-05
14 *33:17 *112:9 0.0135302
15 *419:io_in[0] *33:15 0.000237745
16 *1:9 *33:17 1.86731e-05
*RES
1 io_in[4] *33:5 50.265 
2 *33:5 *33:7 4.5 
3 *33:7 *33:9 71.01 
4 *33:9 *33:15 11.07 
5 *33:15 *33:17 285.39 
6 *33:17 *419:io_in[4] 9.765 
*END

*D_NET *34 0.263107
*CONN
*P io_in[5] I
*I *419:io_in[5] I *D user_proj_example
*CAP
1 io_in[5] 0.006398
2 *419:io_in[5] 0.000774652
3 *34:17 0.00526921
4 *34:15 0.0048935
5 *34:9 0.00691052
6 *34:7 0.00651157
7 *34:5 0.006398
8 *34:15 *39:7 0
9 *34:17 *35:13 0.000979744
10 *34:17 *35:15 0.115421
11 *34:17 *112:9 0.00545302
12 *23:9 *34:9 0.00476085
13 *33:9 *34:9 0.00284162
14 *33:17 *34:17 0.096495
*RES
1 io_in[5] *34:5 50.445 
2 *34:5 *34:7 4.5 
3 *34:7 *34:9 53.55 
4 *34:9 *34:15 11.07 
5 *34:15 *34:17 310.41 
6 *34:17 *419:io_in[5] 9.585 
*END

*D_NET *35 0.26798
*CONN
*P io_in[6] I
*I *419:io_in[6] I *D user_proj_example
*CAP
1 io_in[6] 0.00679322
2 *419:io_in[6] 0.000736146
3 *35:15 0.0129346
4 *35:13 0.0140154
5 *35:5 0.00861014
6 *35:15 *74:9 0.106015
7 *35:15 *112:9 0.00247512
8 *34:17 *35:13 0.000979744
9 *34:17 *35:15 0.115421
*RES
1 io_in[6] *35:5 52.605 
2 *35:5 *35:13 27.63 
3 *35:13 *35:15 357.39 
4 *35:15 *419:io_in[6] 9.405 
*END

*D_NET *36 0.249682
*CONN
*P io_in[7] I
*I *419:io_in[7] I *D user_proj_example
*CAP
1 io_in[7] 0.00659121
2 *419:io_in[7] 0.000904113
3 *36:9 0.0167316
4 *36:7 0.0158275
5 *36:5 0.00659121
6 *36:9 *70:9 0.0570167
7 *36:9 *112:9 0.144355
8 *33:17 *36:9 0.00166398
*RES
1 io_in[7] *36:5 51.345 
2 *36:5 *36:7 4.5 
3 *36:7 *36:9 378.99 
4 *36:9 *419:io_in[7] 10.665 
*END

*D_NET *39 0.172311
*CONN
*P io_oeb[0] O
*I *419:io_oeb[0] O *D user_proj_example
*CAP
1 io_oeb[0] 0.00634425
2 *419:io_oeb[0] 0.00115552
3 *39:11 0.00634425
4 *39:9 0.0248998
5 *39:7 0.0260554
6 *39:9 *71:9 0
7 *1:9 *39:9 0
8 *12:9 *39:9 0.00222809
9 *23:9 *39:9 0.0993006
10 *33:9 *39:9 0.00598344
11 *34:15 *39:7 0
*RES
1 *419:io_oeb[0] *39:7 11.745 
2 *39:7 *39:9 330.93 
3 *39:9 *39:11 4.5 
4 *39:11 io_oeb[0] 50.265 
*END

*D_NET *50 0.248651
*CONN
*P io_oeb[1] O
*I *419:io_oeb[1] O *D user_proj_example
*CAP
1 io_oeb[1] 0.00654606
2 *419:io_oeb[1] 0.000899445
3 *50:11 0.00654606
4 *50:9 0.00370921
5 *50:7 0.00460865
6 *50:9 *70:9 0.008952
7 *1:9 *50:9 0.0887073
8 *12:9 *50:9 0.117513
9 *33:17 *50:9 0.0111691
*RES
1 *419:io_oeb[1] *50:7 10.485 
2 *50:7 *50:9 338.67 
3 *50:9 *50:11 4.5 
4 *50:11 io_oeb[1] 51.525 
*END

*D_NET *61 0.284575
*CONN
*P io_oeb[2] O
*I *419:io_oeb[2] O *D user_proj_example
*CAP
1 io_oeb[2] 0.00645953
2 *419:io_oeb[2] 0.00119671
3 *61:11 0.00645953
4 *61:9 0.00261543
5 *61:7 0.00381215
6 *61:9 *99:9 0.130114
7 *12:9 *61:9 0.00281047
8 *32:9 *61:9 0.131107
*RES
1 *419:io_oeb[2] *61:7 11.205 
2 *61:7 *61:9 346.23 
3 *61:9 *61:11 4.5 
4 *61:11 io_oeb[2] 50.805 
*END

*D_NET *62 0.339174
*CONN
*P io_oeb[30] O
*I *419:io_oeb[8] O *D user_proj_example
*CAP
1 io_oeb[30] 0.0396655
2 *419:io_oeb[8] 0.000514399
3 *62:11 0.0396655
4 *62:9 0.00254125
5 *62:7 0.00305565
6 *62:9 *63:9 0.000545348
7 *24:9 *62:9 0.121525
8 *25:9 *62:9 0.0135865
9 *26:9 *62:9 0.101436
10 *28:9 *62:9 0.00150118
11 *29:9 *62:9 0.0151375
*RES
1 *419:io_oeb[8] *62:7 8.685 
2 *62:7 *62:9 346.41 
3 *62:9 *62:11 4.5 
4 *62:11 io_oeb[30] 316.845 
*END

*D_NET *63 0.219615
*CONN
*P io_oeb[31] O
*I *419:io_oeb[9] O *D user_proj_example
*CAP
1 io_oeb[31] 0.049386
2 *419:io_oeb[9] 0.000576726
3 *63:11 0.049386
4 *63:9 0.0445768
5 *63:7 0.0451535
6 *24:9 *63:9 0.0205819
7 *29:9 *63:9 0.00940836
8 *62:9 *63:9 0.000545348
*RES
1 *419:io_oeb[9] *63:7 8.865 
2 *63:7 *63:9 343.17 
3 *63:9 *63:11 4.5 
4 *63:11 io_oeb[31] 316.665 
*END

*D_NET *64 0.351174
*CONN
*P io_oeb[32] O
*I *419:io_oeb[10] O *D user_proj_example
*CAP
1 io_oeb[32] 0.0495827
2 *419:io_oeb[10] 0.000428082
3 *64:11 0.0495827
4 *64:9 0.00530534
5 *64:7 0.00573342
6 *64:9 *65:9 0.108433
7 *25:9 *64:9 0.00448743
8 *27:9 *64:9 0.127622
*RES
1 *419:io_oeb[10] *64:7 7.965 
2 *64:7 *64:9 339.93 
3 *64:9 *64:11 4.5 
4 *64:11 io_oeb[32] 317.565 
*END

*D_NET *65 0.318519
*CONN
*P io_oeb[33] O
*I *419:io_oeb[11] O *D user_proj_example
*CAP
1 io_oeb[33] 0.0396609
2 *419:io_oeb[11] 0.000406503
3 *65:11 0.0396609
4 *65:9 0.00599447
5 *65:7 0.00640097
6 io_oeb[33] *326:9 0
7 io_oeb[33] *334:9 0.00096555
8 *65:9 *66:9 0.106964
9 *27:9 *65:9 0.00427988
10 *30:9 *65:9 0.00575316
11 *64:9 *65:9 0.108433
*RES
1 *419:io_oeb[11] *65:7 7.785 
2 *65:7 *65:9 336.69 
3 *65:9 *65:11 4.5 
4 *65:11 io_oeb[33] 317.745 
*END

*D_NET *66 0.240796
*CONN
*P io_oeb[34] O
*I *419:io_oeb[12] O *D user_proj_example
*CAP
1 io_oeb[34] 0.04042
2 *419:io_oeb[12] 0.000384923
3 *66:11 0.04042
4 *66:9 0.0230026
5 *66:7 0.0233875
6 *30:9 *66:9 0.00621671
7 *65:9 *66:9 0.106964
*RES
1 *419:io_oeb[12] *66:7 7.605 
2 *66:7 *66:9 333.45 
3 *66:9 *66:11 4.5 
4 *66:11 io_oeb[34] 317.925 
*END

*D_NET *67 0.334493
*CONN
*P io_oeb[35] O
*I *419:io_oeb[13] O *D user_proj_example
*CAP
1 io_oeb[35] 0.0404461
2 *419:io_oeb[13] 0.00061596
3 *67:11 0.0404461
4 *67:9 0.00413697
5 *67:7 0.00475293
6 *26:9 *67:9 0.0325367
7 *29:9 *67:9 0.1145
8 *30:9 *67:9 0.00270667
9 *31:9 *67:9 0.0943513
*RES
1 *419:io_oeb[13] *67:7 8.685 
2 *67:7 *67:9 330.21 
3 *67:9 *67:11 4.5 
4 *67:11 io_oeb[35] 316.845 
*END

*D_NET *68 0.292461
*CONN
*P io_oeb[36] O
*I *419:io_oeb[14] O *D user_proj_example
*CAP
1 io_oeb[36] 0.000855016
2 *419:io_oeb[14] 0.0393834
3 *68:9 0.00639828
4 *68:7 0.00554326
5 *68:5 0.0393834
6 *68:9 *69:9 0.10303
7 *68:9 *104:9 0.067759
8 *68:9 *107:9 0.030109
*RES
1 *419:io_oeb[14] *68:5 314.145 
2 *68:5 *68:7 4.5 
3 *68:7 *68:9 326.61 
4 *68:9 io_oeb[36] 11.385 
*END

*D_NET *69 0.23443
*CONN
*P io_oeb[37] O
*I *419:io_oeb[15] O *D user_proj_example
*CAP
1 io_oeb[37] 0.000859683
2 *419:io_oeb[15] 0.0393448
3 *69:9 0.023397
4 *69:7 0.0225373
5 *69:5 0.0393448
6 *69:9 *107:9 0.00591693
7 *68:9 *69:9 0.10303
*RES
1 *419:io_oeb[15] *69:5 313.965 
2 *69:5 *69:7 4.5 
3 *69:7 *69:9 323.37 
4 *69:9 io_oeb[37] 11.565 
*END

*D_NET *70 0.278963
*CONN
*P io_oeb[3] O
*I *419:io_oeb[3] O *D user_proj_example
*CAP
1 io_oeb[3] 0.00655345
2 *419:io_oeb[3] 0.000993399
3 *70:11 0.00655345
4 *70:9 0.0041239
5 *70:7 0.0051173
6 *12:9 *70:9 0.0660537
7 *32:9 *70:9 0.123557
8 *33:17 *70:9 4.22576e-05
9 *36:9 *70:9 0.0570167
10 *50:9 *70:9 0.008952
*RES
1 *419:io_oeb[3] *70:7 10.845 
2 *70:7 *70:9 353.79 
3 *70:9 *70:11 4.5 
4 *70:11 io_oeb[3] 51.165 
*END

*D_NET *71 0.104017
*CONN
*P io_oeb[4] O
*I *419:io_oeb[4] O *D user_proj_example
*CAP
1 io_oeb[4] 0.00583353
2 *419:io_oeb[4] 0.00125699
3 *71:11 0.00583353
4 *71:9 0.044324
5 *71:7 0.045581
6 io_oeb[4] *237:9 0.00118826
7 *71:9 *99:9 0
8 *23:9 *71:9 0
9 *39:9 *71:9 0
*RES
1 *419:io_oeb[4] *71:7 13.185 
2 *71:7 *71:9 361.35 
3 *71:9 *71:11 4.5 
4 *71:11 io_oeb[4] 48.825 
*END

*D_NET *72 0.105325
*CONN
*P io_oeb[5] O
*I *419:io_oeb[5] O *D user_proj_example
*CAP
1 io_oeb[5] 0.00583005
2 *419:io_oeb[5] 0.00156375
3 *72:11 0.00583005
4 *72:9 0.0452688
5 *72:7 0.0468325
*RES
1 *419:io_oeb[5] *72:7 15.885 
2 *72:7 *72:9 368.73 
3 *72:9 *72:11 4.5 
4 *72:11 io_oeb[5] 46.125 
*END

*D_NET *73 0.107047
*CONN
*P io_oeb[6] O
*I *419:io_oeb[6] O *D user_proj_example
*CAP
1 io_oeb[6] 0.00550636
2 *419:io_oeb[6] 0.00187051
3 *73:9 0.0516529
4 *73:7 0.0480171
*RES
1 *419:io_oeb[6] *73:7 18.585 
2 *73:7 *73:9 376.47 
3 *73:9 io_oeb[6] 47.925 
*END

*D_NET *74 0.23691
*CONN
*P io_oeb[7] O
*I *419:io_oeb[7] O *D user_proj_example
*CAP
1 io_oeb[7] 0.00683171
2 *419:io_oeb[7] 0.000806323
3 *74:17 0.00717706
4 *74:9 0.0578097
5 *74:7 0.0582707
6 *74:9 *112:9 0
7 *35:15 *74:9 0.106015
*RES
1 *419:io_oeb[7] *74:7 9.225 
2 *74:7 *74:9 381.51 
3 *74:9 *74:17 16.11 
4 *74:17 io_oeb[7] 52.785 
*END

*D_NET *77 0.0957286
*CONN
*P io_out[0] O
*I *419:io_out[0] O *D user_proj_example
*CAP
1 io_out[0] 0.00513217
2 *419:io_out[0] 0.00232185
3 *77:9 0.0455425
4 *77:7 0.0427321
*RES
1 *419:io_out[0] *77:7 21.285 
2 *77:7 *77:9 328.59 
3 *77:9 io_out[0] 45.225 
*END

*D_NET *88 0.0976042
*CONN
*P io_out[1] O
*I *419:io_out[1] O *D user_proj_example
*CAP
1 io_out[1] 0.00414395
2 *419:io_out[1] 0.00333445
3 *88:9 0.0454677
4 *88:7 0.0446582
*RES
1 *419:io_out[1] *88:7 29.385 
2 *88:7 *88:9 336.15 
3 *88:9 io_out[1] 37.125 
*END

*D_NET *99 0.281951
*CONN
*P io_out[2] O
*I *419:io_out[2] O *D user_proj_example
*CAP
1 io_out[2] 0.00642102
2 *419:io_out[2] 0.00110892
3 *99:11 0.00642102
4 *99:9 0.00289265
5 *99:7 0.00400156
6 *12:9 *99:9 0.0019709
7 *23:9 *99:9 0.129021
8 *61:9 *99:9 0.130114
9 *71:9 *99:9 0
*RES
1 *419:io_out[2] *99:7 11.385 
2 *99:7 *99:9 343.71 
3 *99:9 *99:11 4.5 
4 *99:11 io_out[2] 50.625 
*END

*D_NET *100 0.243576
*CONN
*P io_out[30] O
*I *419:io_out[8] O *D user_proj_example
*CAP
1 io_out[30] 0.000751787
2 *419:io_out[8] 0.0393173
3 *100:9 0.0267181
4 *100:7 0.0259663
5 *100:5 0.0393173
6 *100:9 *101:9 0.111506
*RES
1 *419:io_out[8] *100:5 314.865 
2 *100:5 *100:7 4.5 
3 *100:7 *100:9 347.31 
4 *100:9 io_out[30] 10.665 
*END

*D_NET *101 0.337006
*CONN
*P io_out[31] O
*I *419:io_out[9] O *D user_proj_example
*CAP
1 io_out[31] 0.000790293
2 *419:io_out[9] 0.0393296
3 *101:9 0.00653664
4 *101:7 0.00574634
5 *101:5 0.0393296
6 *101:9 *102:9 0.11006
7 *101:9 *105:9 0.0237078
8 *100:9 *101:9 0.111506
*RES
1 *419:io_out[9] *101:5 314.685 
2 *101:5 *101:7 4.5 
3 *101:7 *101:9 343.89 
4 *101:9 io_out[31] 10.845 
*END

*D_NET *102 0.314084
*CONN
*P io_out[32] O
*I *419:io_out[10] O *D user_proj_example
*CAP
1 io_out[32] 0.000828799
2 *419:io_out[10] 0.0393342
3 *102:9 0.0103377
4 *102:7 0.00950893
5 *102:5 0.0393342
6 *102:9 *104:9 0.0799218
7 *102:9 *105:9 0.00237191
8 *102:9 *106:9 0.0223862
9 *101:9 *102:9 0.11006
*RES
1 *419:io_out[10] *102:5 314.505 
2 *102:5 *102:7 4.5 
3 *102:7 *102:9 340.65 
4 *102:9 io_out[32] 11.025 
*END

*D_NET *103 0.163401
*CONN
*P io_out[33] O
*I *419:io_out[11] O *D user_proj_example
*CAP
1 io_out[33] 0.00160226
2 *419:io_out[11] 0.0386623
3 *103:9 0.0430381
4 *103:7 0.0414358
5 *103:5 0.0386623
*RES
1 *419:io_out[11] *103:5 309.465 
2 *103:5 *103:7 4.5 
3 *103:7 *103:9 337.41 
4 *103:9 io_out[33] 16.065 
*END

*D_NET *104 0.301739
*CONN
*P io_out[34] O
*I *419:io_out[12] O *D user_proj_example
*CAP
1 io_out[34] 0.000867305
2 *419:io_out[12] 0.0393972
3 *104:9 0.011856
4 *104:7 0.0109887
5 *104:5 0.0393972
6 *104:9 *106:9 0.00298754
7 *104:9 *107:9 0.0485638
8 *68:9 *104:9 0.067759
9 *102:9 *104:9 0.0799218
*RES
1 *419:io_out[12] *104:5 314.325 
2 *104:5 *104:7 4.5 
3 *104:7 *104:9 334.17 
4 *104:9 io_out[34] 11.205 
*END

*D_NET *105 0.253219
*CONN
*P io_out[35] O
*I *419:io_out[13] O *D user_proj_example
*CAP
1 io_out[35] 0.000751787
2 *419:io_out[13] 0.0395296
3 *105:9 0.0216199
4 *105:7 0.0208682
5 *105:5 0.0395296
6 *105:9 *106:9 0.10484
7 *101:9 *105:9 0.0237078