*SPEF "ieee 1481-1999"
*DESIGN "user_project_wrapper"
*DATE "11:11:11 Fri 11 11, 1111"
*VENDOR "OpenRCX"
*PROGRAM "Parallel Extraction"
*VERSION "1.0"
*DESIGN_FLOW "NAME_SCOPE LOCAL" "PIN_CAP NONE"
*DIVIDER /
*DELIMITER :
*BUS_DELIMITER []
*T_UNIT 1 NS
*C_UNIT 1 PF
*R_UNIT 1 OHM
*L_UNIT 1 HENRY

*NAME_MAP
*1 io_in[0]
*2 io_in[10]
*3 io_in[11]
*4 io_in[12]
*5 io_in[13]
*6 io_in[14]
*7 io_in[15]
*8 io_in[16]
*9 io_in[17]
*10 io_in[18]
*11 io_in[19]
*12 io_in[1]
*13 io_in[20]
*14 io_in[21]
*15 io_in[22]
*16 io_in[23]
*17 io_in[24]
*18 io_in[25]
*19 io_in[26]
*20 io_in[27]
*21 io_in[28]
*22 io_in[29]
*23 io_in[2]
*24 io_in[30]
*25 io_in[31]
*26 io_in[32]
*27 io_in[33]
*28 io_in[34]
*29 io_in[35]
*30 io_in[36]
*31 io_in[37]
*32 io_in[3]
*33 io_in[4]
*34 io_in[5]
*35 io_in[6]
*36 io_in[7]
*37 io_in[8]
*38 io_in[9]
*39 io_oeb[0]
*40 io_oeb[10]
*41 io_oeb[11]
*42 io_oeb[12]
*43 io_oeb[13]
*44 io_oeb[14]
*45 io_oeb[15]
*46 io_oeb[16]
*47 io_oeb[17]
*48 io_oeb[18]
*49 io_oeb[19]
*50 io_oeb[1]
*51 io_oeb[20]
*52 io_oeb[21]
*53 io_oeb[22]
*54 io_oeb[23]
*55 io_oeb[24]
*56 io_oeb[25]
*57 io_oeb[26]
*58 io_oeb[27]
*59 io_oeb[28]
*60 io_oeb[29]
*61 io_oeb[2]
*62 io_oeb[30]
*63 io_oeb[31]
*64 io_oeb[32]
*65 io_oeb[33]
*66 io_oeb[34]
*67 io_oeb[35]
*68 io_oeb[36]
*69 io_oeb[37]
*70 io_oeb[3]
*71 io_oeb[4]
*72 io_oeb[5]
*73 io_oeb[6]
*74 io_oeb[7]
*75 io_oeb[8]
*76 io_oeb[9]
*77 io_out[0]
*78 io_out[10]
*79 io_out[11]
*80 io_out[12]
*81 io_out[13]
*82 io_out[14]
*83 io_out[15]
*84 io_out[16]
*85 io_out[17]
*86 io_out[18]
*87 io_out[19]
*88 io_out[1]
*89 io_out[20]
*90 io_out[21]
*91 io_out[22]
*92 io_out[23]
*93 io_out[24]
*94 io_out[25]
*95 io_out[26]
*96 io_out[27]
*97 io_out[28]
*98 io_out[29]
*99 io_out[2]
*100 io_out[30]
*101 io_out[31]
*102 io_out[32]
*103 io_out[33]
*104 io_out[34]
*105 io_out[35]
*106 io_out[36]
*107 io_out[37]
*108 io_out[3]
*109 io_out[4]
*110 io_out[5]
*111 io_out[6]
*112 io_out[7]
*113 io_out[8]
*114 io_out[9]
*115 la_data_in[0]
*116 la_data_in[10]
*117 la_data_in[11]
*118 la_data_in[12]
*119 la_data_in[13]
*120 la_data_in[14]
*121 la_data_in[15]
*122 la_data_in[16]
*123 la_data_in[17]
*124 la_data_in[18]
*125 la_data_in[19]
*126 la_data_in[1]
*127 la_data_in[20]
*128 la_data_in[21]
*129 la_data_in[22]
*130 la_data_in[23]
*131 la_data_in[24]
*132 la_data_in[25]
*133 la_data_in[26]
*134 la_data_in[27]
*135 la_data_in[28]
*136 la_data_in[29]
*137 la_data_in[2]
*138 la_data_in[30]
*139 la_data_in[31]
*140 la_data_in[32]
*141 la_data_in[33]
*142 la_data_in[34]
*143 la_data_in[35]
*144 la_data_in[36]
*145 la_data_in[37]
*146 la_data_in[38]
*147 la_data_in[39]
*148 la_data_in[3]
*149 la_data_in[40]
*150 la_data_in[41]
*151 la_data_in[42]
*152 la_data_in[43]
*153 la_data_in[44]
*154 la_data_in[45]
*155 la_data_in[46]
*156 la_data_in[47]
*157 la_data_in[48]
*158 la_data_in[49]
*159 la_data_in[4]
*160 la_data_in[50]
*161 la_data_in[51]
*162 la_data_in[52]
*163 la_data_in[53]
*164 la_data_in[54]
*165 la_data_in[55]
*166 la_data_in[56]
*167 la_data_in[57]
*168 la_data_in[58]
*169 la_data_in[59]
*170 la_data_in[5]
*171 la_data_in[60]
*172 la_data_in[61]
*173 la_data_in[62]
*174 la_data_in[63]
*175 la_data_in[6]
*176 la_data_in[7]
*177 la_data_in[8]
*178 la_data_in[9]
*179 la_data_out[0]
*180 la_data_out[10]
*181 la_data_out[11]
*182 la_data_out[12]
*183 la_data_out[13]
*184 la_data_out[14]
*185 la_data_out[15]
*186 la_data_out[16]
*187 la_data_out[17]
*188 la_data_out[18]
*189 la_data_out[19]
*190 la_data_out[1]
*191 la_data_out[20]
*192 la_data_out[21]
*193 la_data_out[22]
*194 la_data_out[23]
*195 la_data_out[24]
*196 la_data_out[25]
*197 la_data_out[26]
*198 la_data_out[27]
*199 la_data_out[28]
*200 la_data_out[29]
*201 la_data_out[2]
*202 la_data_out[30]
*203 la_data_out[31]
*204 la_data_out[32]
*205 la_data_out[33]
*206 la_data_out[34]
*207 la_data_out[35]
*208 la_data_out[36]
*209 la_data_out[37]
*210 la_data_out[38]
*211 la_data_out[39]
*212 la_data_out[3]
*213 la_data_out[40]
*214 la_data_out[41]
*215 la_data_out[42]
*216 la_data_out[43]
*217 la_data_out[44]
*218 la_data_out[45]
*219 la_data_out[46]
*220 la_data_out[47]
*221 la_data_out[48]
*222 la_data_out[49]
*223 la_data_out[4]
*224 la_data_out[50]
*225 la_data_out[51]
*226 la_data_out[52]
*227 la_data_out[53]
*228 la_data_out[54]
*229 la_data_out[55]
*230 la_data_out[56]
*231 la_data_out[57]
*232 la_data_out[58]
*233 la_data_out[59]
*234 la_data_out[5]
*235 la_data_out[60]
*236 la_data_out[61]
*237 la_data_out[62]
*238 la_data_out[63]
*239 la_data_out[6]
*240 la_data_out[7]
*241 la_data_out[8]
*242 la_data_out[9]
*243 la_oenb[0]
*244 la_oenb[10]
*245 la_oenb[11]
*246 la_oenb[12]
*247 la_oenb[13]
*248 la_oenb[14]
*249 la_oenb[15]
*250 la_oenb[16]
*251 la_oenb[17]
*252 la_oenb[18]
*253 la_oenb[19]
*254 la_oenb[1]
*255 la_oenb[20]
*256 la_oenb[21]
*257 la_oenb[22]
*258 la_oenb[23]
*259 la_oenb[24]
*260 la_oenb[25]
*261 la_oenb[26]
*262 la_oenb[27]
*263 la_oenb[28]
*264 la_oenb[29]
*265 la_oenb[2]
*266 la_oenb[30]
*267 la_oenb[31]
*268 la_oenb[32]
*269 la_oenb[33]
*270 la_oenb[34]
*271 la_oenb[35]
*272 la_oenb[36]
*273 la_oenb[37]
*274 la_oenb[38]
*275 la_oenb[39]
*276 la_oenb[3]
*277 la_oenb[40]
*278 la_oenb[41]
*279 la_oenb[42]
*280 la_oenb[43]
*281 la_oenb[44]
*282 la_oenb[45]
*283 la_oenb[46]
*284 la_oenb[47]
*285 la_oenb[48]
*286 la_oenb[49]
*287 la_oenb[4]
*288 la_oenb[50]
*289 la_oenb[51]
*290 la_oenb[52]
*291 la_oenb[53]
*292 la_oenb[54]
*293 la_oenb[55]
*294 la_oenb[56]
*295 la_oenb[57]
*296 la_oenb[58]
*297 la_oenb[59]
*298 la_oenb[5]
*299 la_oenb[60]
*300 la_oenb[61]
*301 la_oenb[62]
*302 la_oenb[63]
*303 la_oenb[6]
*304 la_oenb[7]
*305 la_oenb[8]
*306 la_oenb[9]
*307 user_clock2
*308 user_irq[0]
*309 user_irq[1]
*310 user_irq[2]
*313 wb_clk_i
*314 wb_rst_i
*315 wbs_ack_o
*316 wbs_adr_i[0]
*317 wbs_adr_i[10]
*318 wbs_adr_i[11]
*319 wbs_adr_i[12]
*320 wbs_adr_i[13]
*321 wbs_adr_i[14]
*322 wbs_adr_i[15]
*323 wbs_adr_i[16]
*324 wbs_adr_i[17]
*325 wbs_adr_i[18]
*326 wbs_adr_i[19]
*327 wbs_adr_i[1]
*328 wbs_adr_i[20]
*329 wbs_adr_i[21]
*330 wbs_adr_i[22]
*331 wbs_adr_i[23]
*332 wbs_adr_i[24]
*333 wbs_adr_i[25]
*334 wbs_adr_i[26]
*335 wbs_adr_i[27]
*336 wbs_adr_i[28]
*337 wbs_adr_i[29]
*338 wbs_adr_i[2]
*339 wbs_adr_i[30]
*340 wbs_adr_i[31]
*341 wbs_adr_i[3]
*342 wbs_adr_i[4]
*343 wbs_adr_i[5]
*344 wbs_adr_i[6]
*345 wbs_adr_i[7]
*346 wbs_adr_i[8]
*347 wbs_adr_i[9]
*348 wbs_cyc_i
*349 wbs_dat_i[0]
*350 wbs_dat_i[10]
*351 wbs_dat_i[11]
*352 wbs_dat_i[12]
*353 wbs_dat_i[13]
*354 wbs_dat_i[14]
*355 wbs_dat_i[15]
*356 wbs_dat_i[16]
*357 wbs_dat_i[17]
*358 wbs_dat_i[18]
*359 wbs_dat_i[19]
*360 wbs_dat_i[1]
*361 wbs_dat_i[20]
*362 wbs_dat_i[21]
*363 wbs_dat_i[22]
*364 wbs_dat_i[23]
*365 wbs_dat_i[24]
*366 wbs_dat_i[25]
*367 wbs_dat_i[26]
*368 wbs_dat_i[27]
*369 wbs_dat_i[28]
*370 wbs_dat_i[29]
*371 wbs_dat_i[2]
*372 wbs_dat_i[30]
*373 wbs_dat_i[31]
*374 wbs_dat_i[3]
*375 wbs_dat_i[4]
*376 wbs_dat_i[5]
*377 wbs_dat_i[6]
*378 wbs_dat_i[7]
*379 wbs_dat_i[8]
*380 wbs_dat_i[9]
*381 wbs_dat_o[0]
*382 wbs_dat_o[10]
*383 wbs_dat_o[11]
*384 wbs_dat_o[12]
*385 wbs_dat_o[13]
*386 wbs_dat_o[14]
*387 wbs_dat_o[15]
*388 wbs_dat_o[16]
*389 wbs_dat_o[17]
*390 wbs_dat_o[18]
*391 wbs_dat_o[19]
*392 wbs_dat_o[1]
*393 wbs_dat_o[20]
*394 wbs_dat_o[21]
*395 wbs_dat_o[22]
*396 wbs_dat_o[23]
*397 wbs_dat_o[24]
*398 wbs_dat_o[25]
*399 wbs_dat_o[26]
*400 wbs_dat_o[27]
*401 wbs_dat_o[28]
*402 wbs_dat_o[29]
*403 wbs_dat_o[2]
*404 wbs_dat_o[30]
*405 wbs_dat_o[31]
*406 wbs_dat_o[3]
*407 wbs_dat_o[4]
*408 wbs_dat_o[5]
*409 wbs_dat_o[6]
*410 wbs_dat_o[7]
*411 wbs_dat_o[8]
*412 wbs_dat_o[9]
*413 wbs_sel_i[0]
*414 wbs_sel_i[1]
*415 wbs_sel_i[2]
*416 wbs_sel_i[3]
*417 wbs_stb_i
*418 wbs_we_i
*419 mprj

*PORTS
io_in[0] I
io_in[10] I
io_in[11] I
io_in[12] I
io_in[13] I
io_in[14] I
io_in[15] I
io_in[16] I
io_in[17] I
io_in[18] I
io_in[19] I
io_in[1] I
io_in[20] I
io_in[21] I
io_in[22] I
io_in[23] I
io_in[24] I
io_in[25] I
io_in[26] I
io_in[27] I
io_in[28] I
io_in[29] I
io_in[2] I
io_in[30] I
io_in[31] I
io_in[32] I
io_in[33] I
io_in[34] I
io_in[35] I
io_in[36] I
io_in[37] I
io_in[3] I
io_in[4] I
io_in[5] I
io_in[6] I
io_in[7] I
io_in[8] I
io_in[9] I
io_oeb[0] O
io_oeb[10] O
io_oeb[11] O
io_oeb[12] O
io_oeb[13] O
io_oeb[14] O
io_oeb[15] O
io_oeb[16] O
io_oeb[17] O
io_oeb[18] O
io_oeb[19] O
io_oeb[1] O
io_oeb[20] O
io_oeb[21] O
io_oeb[22] O
io_oeb[23] O
io_oeb[24] O
io_oeb[25] O
io_oeb[26] O
io_oeb[27] O
io_oeb[28] O
io_oeb[29] O
io_oeb[2] O
io_oeb[30] O
io_oeb[31] O
io_oeb[32] O
io_oeb[33] O
io_oeb[34] O
io_oeb[35] O
io_oeb[36] O
io_oeb[37] O
io_oeb[3] O
io_oeb[4] O
io_oeb[5] O
io_oeb[6] O
io_oeb[7] O
io_oeb[8] O
io_oeb[9] O
io_out[0] O
io_out[10] O
io_out[11] O
io_out[12] O
io_out[13] O
io_out[14] O
io_out[15] O
io_out[16] O
io_out[17] O
io_out[18] O
io_out[19] O
io_out[1] O
io_out[20] O
io_out[21] O
io_out[22] O
io_out[23] O
io_out[24] O
io_out[25] O
io_out[26] O
io_out[27] O
io_out[28] O
io_out[29] O
io_out[2] O
io_out[30] O
io_out[31] O
io_out[32] O
io_out[33] O
io_out[34] O
io_out[35] O
io_out[36] O
io_out[37] O
io_out[3] O
io_out[4] O
io_out[5] O
io_out[6] O
io_out[7] O
io_out[8] O
io_out[9] O
la_data_in[0] I
la_data_in[10] I
la_data_in[11] I
la_data_in[12] I
la_data_in[13] I
la_data_in[14] I
la_data_in[15] I
la_data_in[16] I
la_data_in[17] I
la_data_in[18] I
la_data_in[19] I
la_data_in[1] I
la_data_in[20] I
la_data_in[21] I
la_data_in[22] I
la_data_in[23] I
la_data_in[24] I
la_data_in[25] I
la_data_in[26] I
la_data_in[27] I
la_data_in[28] I
la_data_in[29] I
la_data_in[2] I
la_data_in[30] I
la_data_in[31] I
la_data_in[32] I
la_data_in[33] I
la_data_in[34] I
la_data_in[35] I
la_data_in[36] I
la_data_in[37] I
la_data_in[38] I
la_data_in[39] I
la_data_in[3] I
la_data_in[40] I
la_data_in[41] I
la_data_in[42] I
la_data_in[43] I
la_data_in[44] I
la_data_in[45] I
la_data_in[46] I
la_data_in[47] I
la_data_in[48] I
la_data_in[49] I
la_data_in[4] I
la_data_in[50] I
la_data_in[51] I
la_data_in[52] I
la_data_in[53] I
la_data_in[54] I
la_data_in[55] I
la_data_in[56] I
la_data_in[57] I
la_data_in[58] I
la_data_in[59] I
la_data_in[5] I
la_data_in[60] I
la_data_in[61] I
la_data_in[62] I
la_data_in[63] I
la_data_in[6] I
la_data_in[7] I
la_data_in[8] I
la_data_in[9] I
la_data_out[0] O
la_data_out[10] O
la_data_out[11] O
la_data_out[12] O
la_data_out[13] O
la_data_out[14] O
la_data_out[15] O
la_data_out[16] O
la_data_out[17] O
la_data_out[18] O
la_data_out[19] O
la_data_out[1] O
la_data_out[20] O
la_data_out[21] O
la_data_out[22] O
la_data_out[23] O
la_data_out[24] O
la_data_out[25] O
la_data_out[26] O
la_data_out[27] O
la_data_out[28] O
la_data_out[29] O
la_data_out[2] O
la_data_out[30] O
la_data_out[31] O
la_data_out[32] O
la_data_out[33] O
la_data_out[34] O
la_data_out[35] O
la_data_out[36] O
la_data_out[37] O
la_data_out[38] O
la_data_out[39] O
la_data_out[3] O
la_data_out[40] O
la_data_out[41] O
la_data_out[42] O
la_data_out[43] O
la_data_out[44] O
la_data_out[45] O
la_data_out[46] O
la_data_out[47] O
la_data_out[48] O
la_data_out[49] O
la_data_out[4] O
la_data_out[50] O
la_data_out[51] O
la_data_out[52] O
la_data_out[53] O
la_data_out[54] O
la_data_out[55] O
la_data_out[56] O
la_data_out[57] O
la_data_out[58] O
la_data_out[59] O
la_data_out[5] O
la_data_out[60] O
la_data_out[61] O
la_data_out[62] O
la_data_out[63] O
la_data_out[6] O
la_data_out[7] O
la_data_out[8] O
la_data_out[9] O
la_oenb[0] I
la_oenb[10] I
la_oenb[11] I
la_oenb[12] I
la_oenb[13] I
la_oenb[14] I
la_oenb[15] I
la_oenb[16] I
la_oenb[17] I
la_oenb[18] I
la_oenb[19] I
la_oenb[1] I
la_oenb[20] I
la_oenb[21] I
la_oenb[22] I
la_oenb[23] I
la_oenb[24] I
la_oenb[25] I
la_oenb[26] I
la_oenb[27] I
la_oenb[28] I
la_oenb[29] I
la_oenb[2] I
la_oenb[30] I
la_oenb[31] I
la_oenb[32] I
la_oenb[33] I
la_oenb[34] I
la_oenb[35] I
la_oenb[36] I
la_oenb[37] I
la_oenb[38] I
la_oenb[39] I
la_oenb[3] I
la_oenb[40] I
la_oenb[41] I
la_oenb[42] I
la_oenb[43] I
la_oenb[44] I
la_oenb[45] I
la_oenb[46] I
la_oenb[47] I
la_oenb[48] I
la_oenb[49] I
la_oenb[4] I
la_oenb[50] I
la_oenb[51] I
la_oenb[52] I
la_oenb[53] I
la_oenb[54] I
la_oenb[55] I
la_oenb[56] I
la_oenb[57] I
la_oenb[58] I
la_oenb[59] I
la_oenb[5] I
la_oenb[60] I
la_oenb[61] I
la_oenb[62] I
la_oenb[63] I
la_oenb[6] I
la_oenb[7] I
la_oenb[8] I
la_oenb[9] I
user_clock2 I
user_irq[0] O
user_irq[1] O
user_irq[2] O
wb_clk_i I
wb_rst_i I
wbs_ack_o O
wbs_adr_i[0] I
wbs_adr_i[10] I
wbs_adr_i[11] I
wbs_adr_i[12] I
wbs_adr_i[13] I
wbs_adr_i[14] I
wbs_adr_i[15] I
wbs_adr_i[16] I
wbs_adr_i[17] I
wbs_adr_i[18] I
wbs_adr_i[19] I
wbs_adr_i[1] I
wbs_adr_i[20] I
wbs_adr_i[21] I
wbs_adr_i[22] I
wbs_adr_i[23] I
wbs_adr_i[24] I
wbs_adr_i[25] I
wbs_adr_i[26] I
wbs_adr_i[27] I
wbs_adr_i[28] I
wbs_adr_i[29] I
wbs_adr_i[2] I
wbs_adr_i[30] I
wbs_adr_i[31] I
wbs_adr_i[3] I
wbs_adr_i[4] I
wbs_adr_i[5] I
wbs_adr_i[6] I
wbs_adr_i[7] I
wbs_adr_i[8] I
wbs_adr_i[9] I
wbs_cyc_i I
wbs_dat_i[0] I
wbs_dat_i[10] I
wbs_dat_i[11] I
wbs_dat_i[12] I
wbs_dat_i[13] I
wbs_dat_i[14] I
wbs_dat_i[15] I
wbs_dat_i[16] I
wbs_dat_i[17] I
wbs_dat_i[18] I
wbs_dat_i[19] I
wbs_dat_i[1] I
wbs_dat_i[20] I
wbs_dat_i[21] I
wbs_dat_i[22] I
wbs_dat_i[23] I
wbs_dat_i[24] I
wbs_dat_i[25] I
wbs_dat_i[26] I
wbs_dat_i[27] I
wbs_dat_i[28] I
wbs_dat_i[29] I
wbs_dat_i[2] I
wbs_dat_i[30] I
wbs_dat_i[31] I
wbs_dat_i[3] I
wbs_dat_i[4] I
wbs_dat_i[5] I
wbs_dat_i[6] I
wbs_dat_i[7] I
wbs_dat_i[8] I
wbs_dat_i[9] I
wbs_dat_o[0] O
wbs_dat_o[10] O
wbs_dat_o[11] O
wbs_dat_o[12] O
wbs_dat_o[13] O
wbs_dat_o[14] O
wbs_dat_o[15] O
wbs_dat_o[16] O
wbs_dat_o[17] O
wbs_dat_o[18] O
wbs_dat_o[19] O
wbs_dat_o[1] O
wbs_dat_o[20] O
wbs_dat_o[21] O
wbs_dat_o[22] O
wbs_dat_o[23] O
wbs_dat_o[24] O
wbs_dat_o[25] O
wbs_dat_o[26] O
wbs_dat_o[27] O
wbs_dat_o[28] O
wbs_dat_o[29] O
wbs_dat_o[2] O
wbs_dat_o[30] O
wbs_dat_o[31] O
wbs_dat_o[3] O
wbs_dat_o[4] O
wbs_dat_o[5] O
wbs_dat_o[6] O
wbs_dat_o[7] O
wbs_dat_o[8] O
wbs_dat_o[9] O
wbs_sel_i[0] I
wbs_sel_i[1] I
wbs_sel_i[2] I
wbs_sel_i[3] I
wbs_stb_i I
wbs_we_i I

*D_NET *1 0.145939
*CONN
*P io_in[0] I
*I *419:io_in[0] I *D user_proj_example
*CAP
1 io_in[0] 0.00619104
2 *419:io_in[0] 0.000743684
3 *1:9 0.0238725
4 *1:7 0.0293199
5 *419:io_in[0] *33:15 0.000206816
6 *1:9 la_data_out[61] 0.000707184
7 *1:9 *12:9 0.00758337
8 *1:9 *33:17 1.81869e-05
9 *1:9 *39:9 0
10 *1:9 *50:9 0.0772966
*RES
1 io_in[0] *1:7 48.162 
2 *1:7 *1:9 275.348 
3 *1:9 *419:io_in[0] 9.402 
*END

*D_NET *12 0.206708
*CONN
*P io_in[1] I
*I *419:io_in[1] I *D user_proj_example
*CAP
1 io_in[1] 0.00615796
2 *419:io_in[1] 0.000867576
3 *12:9 0.00550934
4 *12:7 0.0107997
5 *12:9 *23:9 0.00159949
6 *12:9 *32:9 0.00752389
7 *12:9 *39:9 0.00214503
8 *12:9 *50:9 0.102399
9 *12:9 *61:9 0.0026775
10 *12:9 *70:9 0.0575577
11 *12:9 *99:9 0.00188813
12 *1:9 *12:9 0.00758337
*RES
1 io_in[1] *12:7 47.858 
2 *12:7 *12:9 281.732 
3 *12:9 *419:io_in[1] 9.706 
*END

*D_NET *23 0.232645
*CONN
*P io_in[2] I
*I *419:io_in[2] I *D user_proj_example
*CAP
1 io_in[2] 0.00606845
2 *419:io_in[2] 0.00103918
3 *23:9 0.00781265
4 *23:7 0.0128419
5 *23:9 *34:11 0.00433154
6 *23:9 *39:9 0.0865278
7 *23:9 *71:9 0
8 *23:9 *99:9 0.112424
9 *12:9 *23:9 0.00159949
*RES
1 io_in[2] *23:7 47.098 
2 *23:7 *23:9 288.116 
3 *23:9 *419:io_in[2] 10.466 
*END

*D_NET *24 0.263034
*CONN
*P io_in[30] I
*I *419:io_in[8] I *D user_proj_example
*CAP
1 io_in[30] 0.0376487
2 *419:io_in[8] 0.000630523
3 *24:9 0.0204238
4 *24:7 0.0197933
5 *24:5 0.0376487
6 *24:9 *28:9 0.0222682
7 *24:9 *62:9 0.105895
8 *24:9 *63:9 0.0187259
*RES
1 io_in[30] *24:5 267.406 
2 *24:5 *24:7 4.5 
3 *24:7 *24:9 294.348 
4 *24:9 *419:io_in[8] 8.186 
*END

*D_NET *25 0.276447
*CONN
*P io_in[31] I
*I *419:io_in[9] I *D user_proj_example
*CAP
1 io_in[31] 0.0377534
2 *419:io_in[9] 0.000448793
3 *25:9 0.00822316
4 *25:7 0.00777437
5 *25:5 0.0377534
6 *25:9 *26:9 0.0963306
7 *25:9 *27:9 0.0713195
8 *25:9 *62:9 0.0126609
9 *25:9 *64:9 0.00418257
*RES
1 io_in[31] *25:5 267.862 
2 *25:5 *25:7 4.5 
3 *25:7 *25:9 291.612 
4 *25:9 *419:io_in[9] 7.73 
*END

*D_NET *26 0.314914
*CONN
*P io_in[32] I
*I *419:io_in[10] I *D user_proj_example
*CAP
1 io_in[32] 0.0377259
2 *419:io_in[10] 0.000483113
3 *26:9 0.00127344
4 *26:7 0.000790325
5 *26:5 0.0377259
6 *26:9 *27:9 0.00200846
7 *26:9 *29:9 0.00181226
8 *26:9 *30:9 0.0200246
9 *26:9 *62:9 0.0883891
10 *26:9 *67:9 0.0283508
11 *25:9 *26:9 0.0963306
*RES
1 io_in[32] *26:5 267.71 
2 *26:5 *26:7 4.5 
3 *26:7 *26:9 288.876 
4 *26:9 *419:io_in[10] 7.882 
*END

*D_NET *27 0.310613
*CONN
*P io_in[33] I
*I *419:io_in[11] I *D user_proj_example
*CAP
1 io_in[33] 0.0378082
2 *419:io_in[11] 0.000441839
3 *27:9 0.00128142
4 *27:7 0.000839582
5 *27:5 0.0378082
6 *27:9 *30:9 0.0439082
7 *27:9 *64:9 0.111208
8 *27:9 *65:9 0.00398929
9 *25:9 *27:9 0.0713195
10 *26:9 *27:9 0.00200846
*RES
1 io_in[33] *27:5 268.014 
2 *27:5 *27:7 4.5 
3 *27:7 *27:9 286.14 
4 *27:9 *419:io_in[11] 7.578 
*END

*D_NET *28 0.234102
*CONN
*P io_in[34] I
*I *419:io_in[12] I *D user_proj_example
*CAP
1 io_in[34] 0.0379433
2 *419:io_in[12] 0.00063403
3 *28:9 0.02093
4 *28:7 0.020296
5 *28:5 0.0379433
6 *28:9 *29:9 0.0926883
7 *28:9 *62:9 0.00139872
8 *24:9 *28:9 0.0222682
*RES
1 io_in[34] *28:5 267.254 
2 *28:5 *28:7 4.5 
3 *28:7 *28:9 283.404 
4 *28:9 *419:io_in[12] 8.338 
*END

*D_NET *29 0.303595
*CONN
*P io_in[35] I
*I *419:io_in[13] I *D user_proj_example
*CAP
1 io_in[35] 0.038173
2 *419:io_in[13] 0.000695806
3 *29:9 0.00561691
4 *29:7 0.00492111
5 *29:5 0.038173
6 *29:9 *62:9 0.0131905
7 *29:9 *63:9 0.00855996
8 *29:9 *67:9 0.0997643
9 *26:9 *29:9 0.00181226
10 *28:9 *29:9 0.0926883
*RES
1 io_in[35] *29:5 267.406 
2 *29:5 *29:7 4.5 
3 *29:7 *29:9 280.668 
4 *29:9 *419:io_in[13] 8.186 
*END

*D_NET *30 0.262734
*CONN
*P io_in[36] I
*I *419:io_in[14] I *D user_proj_example
*CAP
1 io_in[36] 0.03843
2 *419:io_in[14] 0.000503524
3 *30:9 0.00890269
4 *30:7 0.00839916
5 *30:5 0.03843
6 *30:9 *31:9 0.0901697
7 *30:9 *65:9 0.00548666
8 *30:9 *66:9 0.00595665
9 *30:9 *67:9 0.00252271
10 *26:9 *30:9 0.0200246
11 *27:9 *30:9 0.0439082
*RES
1 io_in[36] *30:5 267.862 
2 *30:5 *30:7 4.5 
3 *30:7 *30:9 277.932 
4 *30:9 *419:io_in[14] 7.73 
*END

*D_NET *31 0.271041
*CONN
*P io_in[37] I
*I *419:io_in[15] I *D user_proj_example
*CAP
1 io_in[37] 0.0385215
2 *419:io_in[15] 0.000537844
3 *31:9 0.0108118
4 *31:7 0.0102739
5 *31:5 0.0385215
6 *31:5 *364:9 0
7 *31:9 *67:9 0.0822047
8 *30:9 *31:9 0.0901697
*RES
1 io_in[37] *31:5 267.71 
2 *31:5 *31:7 4.5 
3 *31:7 *31:9 275.196 
4 *31:9 *419:io_in[15] 7.882 
*END

*D_NET *32 0.248167
*CONN
*P io_in[3] I
*I *419:io_in[3] I *D user_proj_example
*CAP
1 io_in[3] 0.00615748
2 *419:io_in[3] 0.000949911
3 *32:9 0.00321013
4 *32:7 0.0084177
5 *32:9 *61:9 0.114244
6 *32:9 *70:9 0.107664
7 *12:9 *32:9 0.00752389
*RES
1 io_in[3] *32:7 47.554 
2 *32:7 *32:9 294.5 
3 *32:9 *419:io_in[3] 10.01 
*END

*D_NET *33 0.167501
*CONN
*P io_in[4] I
*I *419:io_in[4] I *D user_proj_example
*CAP
1 io_in[4] 0.0060391
2 *419:io_in[4] 0.000750731
3 *33:17 0.0102564
4 *33:15 0.00984358
5 *33:9 0.00870641
6 *33:7 0.0144076
7 *33:9 *34:11 0.00247052
8 *33:9 *39:9 0.00544388
9 *33:17 *34:17 0.084084
10 *33:17 *36:9 0.00159894
11 *33:17 *50:9 0.0106874
12 *33:17 *70:9 4.07245e-05
13 *33:17 *112:9 0.0129465
14 *419:io_in[0] *33:15 0.000206816
15 *1:9 *33:17 1.81869e-05
*RES
1 io_in[4] *33:7 46.946 
2 *33:7 *33:9 59.964 
3 *33:9 *33:15 10.748 
4 *33:15 *33:17 240.996 
5 *33:17 *419:io_in[4] 8.946 
*END

*D_NET *34 0.232473
*CONN
*P io_in[5] I
*I *419:io_in[5] I *D user_proj_example
*CAP
1 io_in[5] 0.00606595
2 *419:io_in[5] 0.000716411
3 *34:17 0.00484391
4 *34:15 0.00448632
5 *34:11 0.00653739
6 *34:7 0.0122445
7 *34:15 *39:7 0
8 *34:17 *35:13 0.000869647
9 *34:17 *35:15 0.100575
10 *34:17 *112:9 0.00524813
11 *23:9 *34:11 0.00433154
12 *33:9 *34:11 0.00247052
13 *33:17 *34:17 0.084084
*RES
1 io_in[5] *34:7 47.098 
2 *34:7 *34:11 49.72 
3 *34:11 *34:15 6.248 
4 *34:15 *34:17 262.124 
5 *34:17 *419:io_in[5] 8.794 
*END

*D_NET *35 0.236579
*CONN
*P io_in[6] I
*I *419:io_in[6] I *D user_proj_example
*CAP
1 io_in[6] 0.0064247
2 *419:io_in[6] 0.000682091
3 *35:15 0.0120349
4 *35:13 0.0130791
5 *35:7 0.00815102
6 *35:15 *74:9 0.0923792
7 *35:15 *112:9 0.00238358
8 *34:17 *35:13 0.000869647
9 *34:17 *35:15 0.100575
*RES
1 io_in[6] *35:7 48.922 
2 *35:7 *35:13 20.932 
3 *35:13 *35:15 301.796 
4 *35:15 *419:io_in[6] 8.642 
*END

*D_NET *36 0.221132
*CONN
*P io_in[7] I
*I *419:io_in[7] I *D user_proj_example
*CAP
1 io_in[7] 0.00623901
2 *419:io_in[7] 0.000840223
3 *36:9 0.0157922
4 *36:7 0.021191
5 *36:9 *70:9 0.0496825
6 *36:9 *112:9 0.125788
7 *33:17 *36:9 0.00159894
*RES
1 io_in[7] *36:7 47.858 
2 *36:7 *36:9 320.036 
3 *36:9 *419:io_in[7] 9.706 
*END

*D_NET *39 0.155504
*CONN
*P io_oeb[0] O
*I *419:io_oeb[0] O *D user_proj_example
*CAP
1 io_oeb[0] 0.00602046
2 *419:io_oeb[0] 0.00106241
3 *39:9 0.0296314
4 *39:7 0.0246734
5 *39:9 *71:9 0
6 *1:9 *39:9 0
7 *12:9 *39:9 0.00214503
8 *23:9 *39:9 0.0865278
9 *33:9 *39:9 0.00544388
10 *34:15 *39:7 0
*RES
1 *419:io_oeb[0] *39:7 10.618 
2 *39:7 *39:9 279.452 
3 *39:9 io_oeb[0] 46.946 
*END

*D_NET *50 0.219508
*CONN
*P io_oeb[1] O
*I *419:io_oeb[1] O *D user_proj_example
*CAP
1 io_oeb[1] 0.00620595
2 *419:io_oeb[1] 0.000833256
3 *50:9 0.00955738
4 *50:7 0.00418469
5 *50:9 *70:9 0.00834446
6 *1:9 *50:9 0.0772966
7 *12:9 *50:9 0.102399
8 *33:17 *50:9 0.0106874
*RES
1 *419:io_oeb[1] *50:7 9.554 
2 *50:7 *50:9 285.988 
3 *50:9 io_oeb[1] 48.01 
*END

*D_NET *61 0.24943
*CONN
*P io_oeb[2] O
*I *419:io_oeb[2] O *D user_proj_example
*CAP
1 io_oeb[2] 0.00612316
2 *419:io_oeb[2] 0.00109384
3 *61:9 0.00847151
4 *61:7 0.00344219
5 *61:9 *99:9 0.113379
6 *12:9 *61:9 0.0026775
7 *32:9 *61:9 0.114244
*RES
1 *419:io_oeb[2] *61:7 10.162 
2 *61:7 *61:9 292.372 
3 *61:9 io_oeb[2] 47.402 
*END

*D_NET *62 0.302941
*CONN
*P io_oeb[30] O
*I *419:io_oeb[8] O *D user_proj_example
*CAP
1 io_oeb[30] 0.0376848
2 *419:io_oeb[8] 0.000490068
3 *62:11 0.0376848
4 *62:9 0.00228656
5 *62:7 0.00277663
6 *62:9 *63:9 0.000484065
7 *24:9 *62:9 0.105895
8 *25:9 *62:9 0.0126609
9 *26:9 *62:9 0.0883891
10 *28:9 *62:9 0.00139872
11 *29:9 *62:9 0.0131905
*RES
1 *419:io_oeb[8] *62:7 8.034 
2 *62:7 *62:9 292.524 
3 *62:9 *62:11 4.5 
4 *62:11 io_oeb[30] 267.558 
*END

*D_NET *63 0.205756
*CONN
*P io_oeb[31] O
*I *419:io_oeb[9] O *D user_proj_example
*CAP
1 io_oeb[31] 0.04612
2 *419:io_oeb[9] 0.000543253
3 *63:11 0.04612
4 *63:9 0.0423298
5 *63:7 0.0428731
6 *24:9 *63:9 0.0187259
7 *29:9 *63:9 0.00855996
8 *62:9 *63:9 0.000484065
*RES
1 *419:io_oeb[9] *63:7 8.186 
2 *63:7 *63:9 289.788 
3 *63:9 *63:11 4.5 
4 *63:11 io_oeb[31] 267.406 
*END

*D_NET *64 0.313139
*CONN
*P io_oeb[32] O
*I *419:io_oeb[10] O *D user_proj_example
*CAP
1 io_oeb[32] 0.046295
2 *419:io_oeb[10] 0.000407519
3 *64:11 0.046295
4 *64:9 0.00492819
5 *64:7 0.00533571
6 *64:9 *65:9 0.0944866
7 *25:9 *64:9 0.00418257
8 *27:9 *64:9 0.111208
*RES
1 *419:io_oeb[10] *64:7 7.426 
2 *64:7 *64:9 287.052 
3 *64:9 *64:11 4.5 
4 *64:11 io_oeb[32] 268.166 
*END

*D_NET *65 0.285189
*CONN
*P io_oeb[33] O
*I *419:io_oeb[11] O *D user_proj_example
*CAP
1 io_oeb[33] 0.0376266
2 *419:io_oeb[11] 0.000386881
3 *65:11 0.0376266
4 *65:9 0.00553083
5 *65:7 0.00591771
6 io_oeb[33] *326:9 0
7 io_oeb[33] *334:9 0.000933358
8 *65:9 *66:9 0.0932042
9 *27:9 *65:9 0.00398929
10 *30:9 *65:9 0.00548666
11 *64:9 *65:9 0.0944866
*RES
1 *419:io_oeb[11] *65:7 7.274 
2 *65:7 *65:9 284.316 
3 *65:9 *65:11 4.5 
4 *65:11 io_oeb[33] 268.318 
*END

*D_NET *66 0.219959
*CONN
*P io_oeb[34] O
*I *419:io_oeb[12] O *D user_proj_example
*CAP
1 io_oeb[34] 0.0383165
2 *419:io_oeb[12] 0.000366244
3 *66:11 0.0383165
4 *66:9 0.0217164
5 *66:7 0.0220827
6 *30:9 *66:9 0.00595665
7 *65:9 *66:9 0.0932042
*RES
1 *419:io_oeb[12] *66:7 7.122 
2 *66:7 *66:9 281.58 
3 *66:9 *66:11 4.5 
4 *66:11 io_oeb[34] 268.47 
*END

*D_NET *67 0.298117
*CONN
*P io_oeb[35] O
*I *419:io_oeb[13] O *D user_proj_example
*CAP
1 io_oeb[35] 0.0383193
2 *419:io_oeb[13] 0.000572164
3 *67:11 0.0383193
4 *67:9 0.00374565
5 *67:7 0.00431781
6 *26:9 *67:9 0.0283508
7 *29:9 *67:9 0.0997643
8 *30:9 *67:9 0.00252271
9 *31:9 *67:9 0.0822047
*RES
1 *419:io_oeb[13] *67:7 8.034 
2 *67:7 *67:9 278.844 
3 *67:9 *67:11 4.5 
4 *67:11 io_oeb[35] 267.558 
*END

*D_NET *68 0.263618
*CONN
*P io_oeb[36] O
*I *419:io_oeb[14] O *D user_proj_example
*CAP
1 io_oeb[36] 0.000813311
2 *419:io_oeb[14] 0.0374093
3 *68:9 0.00595787
4 *68:7 0.00514456
5 *68:5 0.0374093
6 *68:9 *69:9 0.0897774
7 *68:9 *104:9 0.0590447
8 *68:9 *107:9 0.0280611
*RES
1 *419:io_oeb[14] *68:5 265.278 
2 *68:5 *68:7 4.5 
3 *68:7 *68:9 275.804 
4 *68:9 io_oeb[36] 10.314 
*END

*D_NET *69 0.214478
*CONN
*P io_oeb[37] O
*I *419:io_oeb[15] O *D user_proj_example
*CAP
1 io_oeb[37] 0.000820278
2 *419:io_oeb[15] 0.037375
3 *69:9 0.0221558
4 *69:7 0.0213355
5 *69:5 0.037375
6 *69:9 *107:9 0.00563885
7 *68:9 *69:9 0.0897774
*RES
1 *419:io_oeb[15] *69:5 265.126 
2 *69:5 *69:7 4.5 
3 *69:7 *69:9 273.068 
4 *69:9 io_oeb[37] 10.466 
*END

*D_NET *70 0.245089
*CONN
*P io_oeb[3] O
*I *419:io_oeb[3] O *D user_proj_example
*CAP
1 io_oeb[3] 0.00620547
2 *419:io_oeb[3] 0.000915591
3 *70:9 0.00998427
4 *70:7 0.00469438
5 *12:9 *70:9 0.0575577
6 *32:9 *70:9 0.107664
7 *33:17 *70:9 4.07245e-05
8 *36:9 *70:9 0.0496825
9 *50:9 *70:9 0.00834446
*RES
1 *419:io_oeb[3] *70:7 9.858 
2 *70:7 *70:9 298.756 
3 *70:9 io_oeb[3] 47.706 
*END

*D_NET *71 0.09881
*CONN
*P io_oeb[4] O
*I *419:io_oeb[4] O *D user_proj_example
*CAP
1 io_oeb[4] 0.00552453
2 *419:io_oeb[4] 0.00117018
3 *71:9 0.0476807
4 *71:7 0.0433264
5 io_oeb[4] *237:11 0.00110822
6 *71:9 *99:9 0
7 *23:9 *71:9 0
8 *39:9 *71:9 0
*RES
1 *419:io_oeb[4] *71:7 11.834 
2 *71:7 *71:9 305.14 
3 *71:9 io_oeb[4] 45.73 
*END

*D_NET *72 0.1001
*CONN
*P io_oeb[5] O
*I *419:io_oeb[5] O *D user_proj_example
*CAP
1 io_oeb[5] 0.0055311
2 *419:io_oeb[5] 0.00146606
3 *72:9 0.0485841
4 *72:7 0.0445191
*RES
1 *419:io_oeb[5] *72:7 14.114 
2 *72:7 *72:9 311.372 
3 *72:9 io_oeb[5] 43.45 
*END

*D_NET *73 0.10176
*CONN
*P io_oeb[6] O
*I *419:io_oeb[6] O *D user_proj_example
*CAP
1 io_oeb[6] 0.00522154
2 *419:io_oeb[6] 0.00176194
3 *73:9 0.049118
4 *73:7 0.0456584
*RES
1 *419:io_oeb[6] *73:7 16.394 
2 *73:7 *73:9 317.908 
3 *73:9 io_oeb[6] 41.17 
*END

*D_NET *74 0.212841
*CONN
*P io_oeb[7] O
*I *419:io_oeb[7] O *D user_proj_example
*CAP
1 io_oeb[7] 0.00645901
2 *419:io_oeb[7] 0.000742091
3 *74:17 0.00678571
4 *74:9 0.0530297
5 *74:7 0.0534451
6 *74:9 *112:9 0
7 *35:15 *74:9 0.0923792
*RES
1 *419:io_oeb[7] *74:7 8.49 
2 *74:7 *74:9 322.164 
3 *74:9 *74:17 15.704 
4 *74:17 io_oeb[7] 44.574 
*END

*D_NET *77 0.0909361
*CONN
*P io_out[0] O
*I *419:io_out[0] O *D user_proj_example
*CAP
1 io_out[0] 0.00487123
2 *419:io_out[0] 0.00217416
3 *77:9 0.0432939
4 *77:7 0.0405968
*RES
1 *419:io_out[0] *77:7 18.674 
2 *77:7 *77:9 277.476 
3 *77:9 io_out[0] 38.89 
*END

*D_NET *88 0.0927164
*CONN
*P io_out[1] O
*I *419:io_out[1] O *D user_proj_example
*CAP
1 io_out[1] 0.00392862
2 *419:io_out[1] 0.00313693
3 *88:9 0.0432213
4 *88:7 0.0424296
*RES
1 *419:io_out[1] *88:7 25.514 
2 *88:7 *88:9 283.86 
3 *88:9 io_out[1] 32.05 
*END

*D_NET *99 0.247135
*CONN
*P io_out[2] O
*I *419:io_out[2] O *D user_proj_example
*CAP
1 io_out[2] 0.00608884
2 *419:io_out[2] 0.00101855
3 *99:9 0.00870379
4 *99:7 0.0036335
5 *12:9 *99:9 0.00188813
6 *23:9 *99:9 0.112424
7 *61:9 *99:9 0.113379
8 *71:9 *99:9 0
*RES
1 *419:io_out[2] *99:7 10.314 
2 *99:7 *99:9 290.244 
3 *99:9 io_out[2] 47.25 
*END

*D_NET *100 0.222659
*CONN
*P io_out[30] O
*I *419:io_out[8] O *D user_proj_example
*CAP
1 io_out[30] 0.000717091
2 *419:io_out[8] 0.0373687
3 *100:9 0.0253781
4 *100:7 0.024661
5 *100:5 0.0373687
6 *100:9 *101:9 0.0971658
*RES
1 *419:io_out[8] *100:5 265.886 
2 *100:5 *100:7 4.5 
3 *100:7 *100:9 293.284 
4 *100:9 io_out[30] 9.706 
*END

*D_NET *101 0.300703
*CONN
*P io_out[31] O
*I *419:io_out[9] O *D user_proj_example
*CAP
1 io_out[31] 0.000751411
2 *419:io_out[9] 0.0373755
3 *101:9 0.00611143
4 *101:7 0.00536002
5 *101:5 0.0373755
6 *101:9 *102:9 0.0959048
7 *101:9 *105:9 0.0206583
8 *100:9 *101:9 0.0971658
*RES
1 *419:io_out[9] *101:5 265.734 
2 *101:5 *101:7 4.5 
3 *101:7 *101:9 290.396 
4 *101:9 io_out[31] 9.858 
*END

*D_NET *102 0.281479
*CONN
*P io_out[32] O
*I *419:io_out[10] O *D user_proj_example
*CAP
1 io_out[32] 0.000785731
2 *419:io_out[10] 0.0373755
3 *102:9 0.00973215
4 *102:7 0.00894642
5 *102:5 0.0373755
6 *102:9 *104:9 0.0696417
7 *102:9 *105:9 0.00221058
8 *102:9 *106:9 0.0195064
9 *101:9 *102:9 0.0959048
*RES
1 *419:io_out[10] *102:5 265.582 
2 *102:5 *102:7 4.5 
3 *102:7 *102:9 287.66 
4 *102:9 io_out[32] 10.01 
*END

*D_NET *103 0.155293
*CONN
*P io_out[33] O
*I *419:io_out[11] O *D user_proj_example
*CAP
1 io_out[33] 0.00150038
2 *419:io_out[11] 0.0367429
3 *103:9 0.0409038
4 *103:7 0.0394034
5 *103:5 0.0367429
*RES
1 *419:io_out[11] *103:5 261.326 
2 *103:5 *103:7 4.5 
3 *103:7 *103:9 284.924 
4 *103:9 io_out[33] 14.266 
*END

*D_NET *104 0.270976
*CONN
*P io_out[34] O
*I *419:io_out[12] O *D user_proj_example
*CAP
1 io_out[34] 0.000820051
2 *419:io_out[12] 0.0374232
3 *104:9 0.0111707
4 *104:7 0.0103506
5 *104:5 0.0374232
6 *104:9 *106:9 0.00278431
7 *104:9 *107:9 0.0423179
8 *68:9 *104:9 0.0590447
9 *102:9 *104:9 0.0696417
*RES
1 *419:io_out[12] *104:5 265.43 
2 *104:5 *104:7 4.5 
3 *104:7 *104:9 282.188 
4 *104:9 io_out[34] 10.162 
*END

*D_NET *105 0.23029
*CONN
*P io_out[35] O
*I *419:io_out[13] O *D user_proj_example
*CAP
1 io_out[35] 0.000717091
2 *419:io_out[13] 0.0375398
3 *105:9 0.0204931
4 *105:7 0.019776
5 *105:5 0.0375398
6 *105:9 *106:9 0.0913555
7 *101:9 *105:9 0.0206583
8 *102:9 *105:9 0.00221058
*RES
1 *419:io_out[13] *105:5 265.886 
2 *105:5 *105:7 4.5 
3 *105:7 *105:9 279.604 
4 *105:9 io_out[35] 9.706 
*END

*D_NET *106 0.289646
*CONN
*P io_out[36] O
*I *419:io_out[14] O *D user_proj_example
*CAP
1 io_out[36] 0.000737728
2 *419:io_out[14] 0.0375055
3 *106:9 0.00538829
4 *106:7 0.00465056
5 *106:5 0.0375055
6 *106:9 *107:9 0.0902119
7 *102:9 *106:9 0.0195064
8 *104:9 *106:9 0.00278431
9 *105:9 *106:9 0.0913555
*RES
1 *419:io_out[14] *106:5 265.734 