*SPEF "ieee 1481-1999"
*DESIGN "user_project_wrapper"
*DATE "11:11:11 Fri 11 11, 1111"
*VENDOR "OpenRCX"
*PROGRAM "Parallel Extraction"
*VERSION "1.0"
*DESIGN_FLOW "NAME_SCOPE LOCAL" "PIN_CAP NONE"
*DIVIDER /
*DELIMITER :
*BUS_DELIMITER []
*T_UNIT 1 NS
*C_UNIT 1 PF
*R_UNIT 1 OHM
*L_UNIT 1 HENRY

*NAME_MAP
*1 io_in[0]
*2 io_in[10]
*3 io_in[11]
*4 io_in[12]
*5 io_in[13]
*6 io_in[14]
*7 io_in[15]
*8 io_in[16]
*9 io_in[17]
*10 io_in[18]
*11 io_in[19]
*12 io_in[1]
*13 io_in[20]
*14 io_in[21]
*15 io_in[22]
*16 io_in[23]
*17 io_in[24]
*18 io_in[25]
*19 io_in[26]
*20 io_in[27]
*21 io_in[28]
*22 io_in[29]
*23 io_in[2]
*24 io_in[30]
*25 io_in[31]
*26 io_in[32]
*27 io_in[33]
*28 io_in[34]
*29 io_in[35]
*30 io_in[36]
*31 io_in[37]
*32 io_in[3]
*33 io_in[4]
*34 io_in[5]
*35 io_in[6]
*36 io_in[7]
*37 io_in[8]
*38 io_in[9]
*39 io_oeb[0]
*40 io_oeb[10]
*41 io_oeb[11]
*42 io_oeb[12]
*43 io_oeb[13]
*44 io_oeb[14]
*45 io_oeb[15]
*46 io_oeb[16]
*47 io_oeb[17]
*48 io_oeb[18]
*49 io_oeb[19]
*50 io_oeb[1]
*51 io_oeb[20]
*52 io_oeb[21]
*53 io_oeb[22]
*54 io_oeb[23]
*55 io_oeb[24]
*56 io_oeb[25]
*57 io_oeb[26]
*58 io_oeb[27]
*59 io_oeb[28]
*60 io_oeb[29]
*61 io_oeb[2]
*62 io_oeb[30]
*63 io_oeb[31]
*64 io_oeb[32]
*65 io_oeb[33]
*66 io_oeb[34]
*67 io_oeb[35]
*68 io_oeb[36]
*69 io_oeb[37]
*70 io_oeb[3]
*71 io_oeb[4]
*72 io_oeb[5]
*73 io_oeb[6]
*74 io_oeb[7]
*75 io_oeb[8]
*76 io_oeb[9]
*77 io_out[0]
*78 io_out[10]
*79 io_out[11]
*80 io_out[12]
*81 io_out[13]
*82 io_out[14]
*83 io_out[15]
*84 io_out[16]
*85 io_out[17]
*86 io_out[18]
*87 io_out[19]
*88 io_out[1]
*89 io_out[20]
*90 io_out[21]
*91 io_out[22]
*92 io_out[23]
*93 io_out[24]
*94 io_out[25]
*95 io_out[26]
*96 io_out[27]
*97 io_out[28]
*98 io_out[29]
*99 io_out[2]
*100 io_out[30]
*101 io_out[31]
*102 io_out[32]
*103 io_out[33]
*104 io_out[34]
*105 io_out[35]
*106 io_out[36]
*107 io_out[37]
*108 io_out[3]
*109 io_out[4]
*110 io_out[5]
*111 io_out[6]
*112 io_out[7]
*113 io_out[8]
*114 io_out[9]
*115 la_data_in[0]
*116 la_data_in[10]
*117 la_data_in[11]
*118 la_data_in[12]
*119 la_data_in[13]
*120 la_data_in[14]
*121 la_data_in[15]
*122 la_data_in[16]
*123 la_data_in[17]
*124 la_data_in[18]
*125 la_data_in[19]
*126 la_data_in[1]
*127 la_data_in[20]
*128 la_data_in[21]
*129 la_data_in[22]
*130 la_data_in[23]
*131 la_data_in[24]
*132 la_data_in[25]
*133 la_data_in[26]
*134 la_data_in[27]
*135 la_data_in[28]
*136 la_data_in[29]
*137 la_data_in[2]
*138 la_data_in[30]
*139 la_data_in[31]
*140 la_data_in[32]
*141 la_data_in[33]
*142 la_data_in[34]
*143 la_data_in[35]
*144 la_data_in[36]
*145 la_data_in[37]
*146 la_data_in[38]
*147 la_data_in[39]
*148 la_data_in[3]
*149 la_data_in[40]
*150 la_data_in[41]
*151 la_data_in[42]
*152 la_data_in[43]
*153 la_data_in[44]
*154 la_data_in[45]
*155 la_data_in[46]
*156 la_data_in[47]
*157 la_data_in[48]
*158 la_data_in[49]
*159 la_data_in[4]
*160 la_data_in[50]
*161 la_data_in[51]
*162 la_data_in[52]
*163 la_data_in[53]
*164 la_data_in[54]
*165 la_data_in[55]
*166 la_data_in[56]
*167 la_data_in[57]
*168 la_data_in[58]
*169 la_data_in[59]
*170 la_data_in[5]
*171 la_data_in[60]
*172 la_data_in[61]
*173 la_data_in[62]
*174 la_data_in[63]
*175 la_data_in[6]
*176 la_data_in[7]
*177 la_data_in[8]
*178 la_data_in[9]
*179 la_data_out[0]
*180 la_data_out[10]
*181 la_data_out[11]
*182 la_data_out[12]
*183 la_data_out[13]
*184 la_data_out[14]
*185 la_data_out[15]
*186 la_data_out[16]
*187 la_data_out[17]
*188 la_data_out[18]
*189 la_data_out[19]
*190 la_data_out[1]
*191 la_data_out[20]
*192 la_data_out[21]
*193 la_data_out[22]
*194 la_data_out[23]
*195 la_data_out[24]
*196 la_data_out[25]
*197 la_data_out[26]
*198 la_data_out[27]
*199 la_data_out[28]
*200 la_data_out[29]
*201 la_data_out[2]
*202 la_data_out[30]
*203 la_data_out[31]
*204 la_data_out[32]
*205 la_data_out[33]
*206 la_data_out[34]
*207 la_data_out[35]
*208 la_data_out[36]
*209 la_data_out[37]
*210 la_data_out[38]
*211 la_data_out[39]
*212 la_data_out[3]
*213 la_data_out[40]
*214 la_data_out[41]
*215 la_data_out[42]
*216 la_data_out[43]
*217 la_data_out[44]
*218 la_data_out[45]
*219 la_data_out[46]
*220 la_data_out[47]
*221 la_data_out[48]
*222 la_data_out[49]
*223 la_data_out[4]
*224 la_data_out[50]
*225 la_data_out[51]
*226 la_data_out[52]
*227 la_data_out[53]
*228 la_data_out[54]
*229 la_data_out[55]
*230 la_data_out[56]
*231 la_data_out[57]
*232 la_data_out[58]
*233 la_data_out[59]
*234 la_data_out[5]
*235 la_data_out[60]
*236 la_data_out[61]
*237 la_data_out[62]
*238 la_data_out[63]
*239 la_data_out[6]
*240 la_data_out[7]
*241 la_data_out[8]
*242 la_data_out[9]
*243 la_oenb[0]
*244 la_oenb[10]
*245 la_oenb[11]
*246 la_oenb[12]
*247 la_oenb[13]
*248 la_oenb[14]
*249 la_oenb[15]
*250 la_oenb[16]
*251 la_oenb[17]
*252 la_oenb[18]
*253 la_oenb[19]
*254 la_oenb[1]
*255 la_oenb[20]
*256 la_oenb[21]
*257 la_oenb[22]
*258 la_oenb[23]
*259 la_oenb[24]
*260 la_oenb[25]
*261 la_oenb[26]
*262 la_oenb[27]
*263 la_oenb[28]
*264 la_oenb[29]
*265 la_oenb[2]
*266 la_oenb[30]
*267 la_oenb[31]
*268 la_oenb[32]
*269 la_oenb[33]
*270 la_oenb[34]
*271 la_oenb[35]
*272 la_oenb[36]
*273 la_oenb[37]
*274 la_oenb[38]
*275 la_oenb[39]
*276 la_oenb[3]
*277 la_oenb[40]
*278 la_oenb[41]
*279 la_oenb[42]
*280 la_oenb[43]
*281 la_oenb[44]
*282 la_oenb[45]
*283 la_oenb[46]
*284 la_oenb[47]
*285 la_oenb[48]
*286 la_oenb[49]
*287 la_oenb[4]
*288 la_oenb[50]
*289 la_oenb[51]
*290 la_oenb[52]
*291 la_oenb[53]
*292 la_oenb[54]
*293 la_oenb[55]
*294 la_oenb[56]
*295 la_oenb[57]
*296 la_oenb[58]
*297 la_oenb[59]
*298 la_oenb[5]
*299 la_oenb[60]
*300 la_oenb[61]
*301 la_oenb[62]
*302 la_oenb[63]
*303 la_oenb[6]
*304 la_oenb[7]
*305 la_oenb[8]
*306 la_oenb[9]
*307 user_clock2
*308 user_irq[0]
*309 user_irq[1]
*310 user_irq[2]
*313 wb_clk_i
*314 wb_rst_i
*315 wbs_ack_o
*316 wbs_adr_i[0]
*317 wbs_adr_i[10]
*318 wbs_adr_i[11]
*319 wbs_adr_i[12]
*320 wbs_adr_i[13]
*321 wbs_adr_i[14]
*322 wbs_adr_i[15]
*323 wbs_adr_i[16]
*324 wbs_adr_i[17]
*325 wbs_adr_i[18]
*326 wbs_adr_i[19]
*327 wbs_adr_i[1]
*328 wbs_adr_i[20]
*329 wbs_adr_i[21]
*330 wbs_adr_i[22]
*331 wbs_adr_i[23]
*332 wbs_adr_i[24]
*333 wbs_adr_i[25]
*334 wbs_adr_i[26]
*335 wbs_adr_i[27]
*336 wbs_adr_i[28]
*337 wbs_adr_i[29]
*338 wbs_adr_i[2]
*339 wbs_adr_i[30]
*340 wbs_adr_i[31]
*341 wbs_adr_i[3]
*342 wbs_adr_i[4]
*343 wbs_adr_i[5]
*344 wbs_adr_i[6]
*345 wbs_adr_i[7]
*346 wbs_adr_i[8]
*347 wbs_adr_i[9]
*348 wbs_cyc_i
*349 wbs_dat_i[0]
*350 wbs_dat_i[10]
*351 wbs_dat_i[11]
*352 wbs_dat_i[12]
*353 wbs_dat_i[13]
*354 wbs_dat_i[14]
*355 wbs_dat_i[15]
*356 wbs_dat_i[16]
*357 wbs_dat_i[17]
*358 wbs_dat_i[18]
*359 wbs_dat_i[19]
*360 wbs_dat_i[1]
*361 wbs_dat_i[20]
*362 wbs_dat_i[21]
*363 wbs_dat_i[22]
*364 wbs_dat_i[23]
*365 wbs_dat_i[24]
*366 wbs_dat_i[25]
*367 wbs_dat_i[26]
*368 wbs_dat_i[27]
*369 wbs_dat_i[28]
*370 wbs_dat_i[29]
*371 wbs_dat_i[2]
*372 wbs_dat_i[30]
*373 wbs_dat_i[31]
*374 wbs_dat_i[3]
*375 wbs_dat_i[4]
*376 wbs_dat_i[5]
*377 wbs_dat_i[6]
*378 wbs_dat_i[7]
*379 wbs_dat_i[8]
*380 wbs_dat_i[9]
*381 wbs_dat_o[0]
*382 wbs_dat_o[10]
*383 wbs_dat_o[11]
*384 wbs_dat_o[12]
*385 wbs_dat_o[13]
*386 wbs_dat_o[14]
*387 wbs_dat_o[15]
*388 wbs_dat_o[16]
*389 wbs_dat_o[17]
*390 wbs_dat_o[18]
*391 wbs_dat_o[19]
*392 wbs_dat_o[1]
*393 wbs_dat_o[20]
*394 wbs_dat_o[21]
*395 wbs_dat_o[22]
*396 wbs_dat_o[23]
*397 wbs_dat_o[24]
*398 wbs_dat_o[25]
*399 wbs_dat_o[26]
*400 wbs_dat_o[27]
*401 wbs_dat_o[28]
*402 wbs_dat_o[29]
*403 wbs_dat_o[2]
*404 wbs_dat_o[30]
*405 wbs_dat_o[31]
*406 wbs_dat_o[3]
*407 wbs_dat_o[4]
*408 wbs_dat_o[5]
*409 wbs_dat_o[6]
*410 wbs_dat_o[7]
*411 wbs_dat_o[8]
*412 wbs_dat_o[9]
*413 wbs_sel_i[0]
*414 wbs_sel_i[1]
*415 wbs_sel_i[2]
*416 wbs_sel_i[3]
*417 wbs_stb_i
*418 wbs_we_i
*419 mprj

*PORTS
io_in[0] I
io_in[10] I
io_in[11] I
io_in[12] I
io_in[13] I
io_in[14] I
io_in[15] I
io_in[16] I
io_in[17] I
io_in[18] I
io_in[19] I
io_in[1] I
io_in[20] I
io_in[21] I
io_in[22] I
io_in[23] I
io_in[24] I
io_in[25] I
io_in[26] I
io_in[27] I
io_in[28] I
io_in[29] I
io_in[2] I
io_in[30] I
io_in[31] I
io_in[32] I
io_in[33] I
io_in[34] I
io_in[35] I
io_in[36] I
io_in[37] I
io_in[3] I
io_in[4] I
io_in[5] I
io_in[6] I
io_in[7] I
io_in[8] I
io_in[9] I
io_oeb[0] O
io_oeb[10] O
io_oeb[11] O
io_oeb[12] O
io_oeb[13] O
io_oeb[14] O
io_oeb[15] O
io_oeb[16] O
io_oeb[17] O
io_oeb[18] O
io_oeb[19] O
io_oeb[1] O
io_oeb[20] O
io_oeb[21] O
io_oeb[22] O
io_oeb[23] O
io_oeb[24] O
io_oeb[25] O
io_oeb[26] O
io_oeb[27] O
io_oeb[28] O
io_oeb[29] O
io_oeb[2] O
io_oeb[30] O
io_oeb[31] O
io_oeb[32] O
io_oeb[33] O
io_oeb[34] O
io_oeb[35] O
io_oeb[36] O
io_oeb[37] O
io_oeb[3] O
io_oeb[4] O
io_oeb[5] O
io_oeb[6] O
io_oeb[7] O
io_oeb[8] O
io_oeb[9] O
io_out[0] O
io_out[10] O
io_out[11] O
io_out[12] O
io_out[13] O
io_out[14] O
io_out[15] O
io_out[16] O
io_out[17] O
io_out[18] O
io_out[19] O
io_out[1] O
io_out[20] O
io_out[21] O
io_out[22] O
io_out[23] O
io_out[24] O
io_out[25] O
io_out[26] O
io_out[27] O
io_out[28] O
io_out[29] O
io_out[2] O
io_out[30] O
io_out[31] O
io_out[32] O
io_out[33] O
io_out[34] O
io_out[35] O
io_out[36] O
io_out[37] O
io_out[3] O
io_out[4] O
io_out[5] O
io_out[6] O
io_out[7] O
io_out[8] O
io_out[9] O
la_data_in[0] I
la_data_in[10] I
la_data_in[11] I
la_data_in[12] I
la_data_in[13] I
la_data_in[14] I
la_data_in[15] I
la_data_in[16] I
la_data_in[17] I
la_data_in[18] I
la_data_in[19] I
la_data_in[1] I
la_data_in[20] I
la_data_in[21] I
la_data_in[22] I
la_data_in[23] I
la_data_in[24] I
la_data_in[25] I
la_data_in[26] I
la_data_in[27] I
la_data_in[28] I
la_data_in[29] I
la_data_in[2] I
la_data_in[30] I
la_data_in[31] I
la_data_in[32] I
la_data_in[33] I
la_data_in[34] I
la_data_in[35] I
la_data_in[36] I
la_data_in[37] I
la_data_in[38] I
la_data_in[39] I
la_data_in[3] I
la_data_in[40] I
la_data_in[41] I
la_data_in[42] I
la_data_in[43] I
la_data_in[44] I
la_data_in[45] I
la_data_in[46] I
la_data_in[47] I
la_data_in[48] I
la_data_in[49] I
la_data_in[4] I
la_data_in[50] I
la_data_in[51] I
la_data_in[52] I
la_data_in[53] I
la_data_in[54] I
la_data_in[55] I
la_data_in[56] I
la_data_in[57] I
la_data_in[58] I
la_data_in[59] I
la_data_in[5] I
la_data_in[60] I
la_data_in[61] I
la_data_in[62] I
la_data_in[63] I
la_data_in[6] I
la_data_in[7] I
la_data_in[8] I
la_data_in[9] I
la_data_out[0] O
la_data_out[10] O
la_data_out[11] O
la_data_out[12] O
la_data_out[13] O
la_data_out[14] O
la_data_out[15] O
la_data_out[16] O
la_data_out[17] O
la_data_out[18] O
la_data_out[19] O
la_data_out[1] O
la_data_out[20] O
la_data_out[21] O
la_data_out[22] O
la_data_out[23] O
la_data_out[24] O
la_data_out[25] O
la_data_out[26] O
la_data_out[27] O
la_data_out[28] O
la_data_out[29] O
la_data_out[2] O
la_data_out[30] O
la_data_out[31] O
la_data_out[32] O
la_data_out[33] O
la_data_out[34] O
la_data_out[35] O
la_data_out[36] O
la_data_out[37] O
la_data_out[38] O
la_data_out[39] O
la_data_out[3] O
la_data_out[40] O
la_data_out[41] O
la_data_out[42] O
la_data_out[43] O
la_data_out[44] O
la_data_out[45] O
la_data_out[46] O
la_data_out[47] O
la_data_out[48] O
la_data_out[49] O
la_data_out[4] O
la_data_out[50] O
la_data_out[51] O
la_data_out[52] O
la_data_out[53] O
la_data_out[54] O
la_data_out[55] O
la_data_out[56] O
la_data_out[57] O
la_data_out[58] O
la_data_out[59] O
la_data_out[5] O
la_data_out[60] O
la_data_out[61] O
la_data_out[62] O
la_data_out[63] O
la_data_out[6] O
la_data_out[7] O
la_data_out[8] O
la_data_out[9] O
la_oenb[0] I
la_oenb[10] I
la_oenb[11] I
la_oenb[12] I
la_oenb[13] I
la_oenb[14] I
la_oenb[15] I
la_oenb[16] I
la_oenb[17] I
la_oenb[18] I
la_oenb[19] I
la_oenb[1] I
la_oenb[20] I
la_oenb[21] I
la_oenb[22] I
la_oenb[23] I
la_oenb[24] I
la_oenb[25] I
la_oenb[26] I
la_oenb[27] I
la_oenb[28] I
la_oenb[29] I
la_oenb[2] I
la_oenb[30] I
la_oenb[31] I
la_oenb[32] I
la_oenb[33] I
la_oenb[34] I
la_oenb[35] I
la_oenb[36] I
la_oenb[37] I
la_oenb[38] I
la_oenb[39] I
la_oenb[3] I
la_oenb[40] I
la_oenb[41] I
la_oenb[42] I
la_oenb[43] I
la_oenb[44] I
la_oenb[45] I
la_oenb[46] I
la_oenb[47] I
la_oenb[48] I
la_oenb[49] I
la_oenb[4] I
la_oenb[50] I
la_oenb[51] I
la_oenb[52] I
la_oenb[53] I
la_oenb[54] I
la_oenb[55] I
la_oenb[56] I
la_oenb[57] I
la_oenb[58] I
la_oenb[59] I
la_oenb[5] I
la_oenb[60] I
la_oenb[61] I
la_oenb[62] I
la_oenb[63] I
la_oenb[6] I
la_oenb[7] I
la_oenb[8] I
la_oenb[9] I
user_clock2 I
user_irq[0] O
user_irq[1] O
user_irq[2] O
wb_clk_i I
wb_rst_i I
wbs_ack_o O
wbs_adr_i[0] I
wbs_adr_i[10] I
wbs_adr_i[11] I
wbs_adr_i[12] I
wbs_adr_i[13] I
wbs_adr_i[14] I
wbs_adr_i[15] I
wbs_adr_i[16] I
wbs_adr_i[17] I
wbs_adr_i[18] I
wbs_adr_i[19] I
wbs_adr_i[1] I
wbs_adr_i[20] I
wbs_adr_i[21] I
wbs_adr_i[22] I
wbs_adr_i[23] I
wbs_adr_i[24] I
wbs_adr_i[25] I
wbs_adr_i[26] I
wbs_adr_i[27] I
wbs_adr_i[28] I
wbs_adr_i[29] I
wbs_adr_i[2] I
wbs_adr_i[30] I
wbs_adr_i[31] I
wbs_adr_i[3] I
wbs_adr_i[4] I
wbs_adr_i[5] I
wbs_adr_i[6] I
wbs_adr_i[7] I
wbs_adr_i[8] I
wbs_adr_i[9] I
wbs_cyc_i I
wbs_dat_i[0] I
wbs_dat_i[10] I
wbs_dat_i[11] I
wbs_dat_i[12] I
wbs_dat_i[13] I
wbs_dat_i[14] I
wbs_dat_i[15] I
wbs_dat_i[16] I
wbs_dat_i[17] I
wbs_dat_i[18] I
wbs_dat_i[19] I
wbs_dat_i[1] I
wbs_dat_i[20] I
wbs_dat_i[21] I
wbs_dat_i[22] I
wbs_dat_i[23] I
wbs_dat_i[24] I
wbs_dat_i[25] I
wbs_dat_i[26] I
wbs_dat_i[27] I
wbs_dat_i[28] I
wbs_dat_i[29] I
wbs_dat_i[2] I
wbs_dat_i[30] I
wbs_dat_i[31] I
wbs_dat_i[3] I
wbs_dat_i[4] I
wbs_dat_i[5] I
wbs_dat_i[6] I
wbs_dat_i[7] I
wbs_dat_i[8] I
wbs_dat_i[9] I
wbs_dat_o[0] O
wbs_dat_o[10] O
wbs_dat_o[11] O
wbs_dat_o[12] O
wbs_dat_o[13] O
wbs_dat_o[14] O
wbs_dat_o[15] O
wbs_dat_o[16] O
wbs_dat_o[17] O
wbs_dat_o[18] O
wbs_dat_o[19] O
wbs_dat_o[1] O
wbs_dat_o[20] O
wbs_dat_o[21] O
wbs_dat_o[22] O
wbs_dat_o[23] O
wbs_dat_o[24] O
wbs_dat_o[25] O
wbs_dat_o[26] O
wbs_dat_o[27] O
wbs_dat_o[28] O
wbs_dat_o[29] O
wbs_dat_o[2] O
wbs_dat_o[30] O
wbs_dat_o[31] O
wbs_dat_o[3] O
wbs_dat_o[4] O
wbs_dat_o[5] O
wbs_dat_o[6] O
wbs_dat_o[7] O
wbs_dat_o[8] O
wbs_dat_o[9] O
wbs_sel_i[0] I
wbs_sel_i[1] I
wbs_sel_i[2] I
wbs_sel_i[3] I
wbs_stb_i I
wbs_we_i I

*D_NET *1 0.178633
*CONN
*P io_in[0] I
*I *419:io_in[0] I *D user_proj_example
*CAP
1 io_in[0] 0.00690732
2 *419:io_in[0] 0.000869627
3 *1:9 0.0266714
4 *1:7 0.0258017
5 *1:5 0.00690732
6 *419:io_in[0] *33:15 0.00027255
7 *1:9 la_data_out[61] 0.000859493
8 *1:9 *12:9 0.00866625
9 *1:9 *33:17 1.90856e-05
10 *1:9 *39:9 0
11 *1:9 *50:9 0.101658
*RES
1 io_in[0] *1:5 59.748 
2 *1:5 *1:7 4.5 
3 *1:7 *1:9 376.792 
4 *1:9 *419:io_in[0] 11.208 
*END

*D_NET *12 0.263623
*CONN
*P io_in[1] I
*I *419:io_in[1] I *D user_proj_example
*CAP
1 io_in[1] 0.00687398
2 *419:io_in[1] 0.00102704
3 *12:9 0.00659339
4 *12:7 0.00556635
5 *12:5 0.00687398
6 *12:9 *23:9 0.00173456
7 *12:9 *32:9 0.00859349
8 *12:9 *39:9 0.00231466
9 *12:9 *50:9 0.134669
10 *12:9 *61:9 0.00295199
11 *12:9 *70:9 0.0756968
12 *12:9 *99:9 0.00206202
13 *1:9 *12:9 0.00866625
*RES
1 io_in[1] *12:5 59.332 
2 *12:5 *12:7 4.5 
3 *12:7 *12:9 385.528 
4 *12:9 *419:io_in[1] 11.624 
*END

*D_NET *23 0.300449
*CONN
*P io_in[2] I
*I *419:io_in[2] I *D user_proj_example
*CAP
1 io_in[2] 0.00678246
2 *419:io_in[2] 0.00124766
3 *23:9 0.00911534
4 *23:7 0.00786769
5 *23:5 0.00678246
6 *23:9 *34:9 0.00526445
7 *23:9 *39:9 0.113798
8 *23:9 *71:9 0
9 *23:9 *99:9 0.147857
10 *12:9 *23:9 0.00173456
*RES
1 io_in[2] *23:5 58.292 
2 *23:5 *23:7 4.5 
3 *23:7 *23:9 394.264 
4 *23:9 *419:io_in[2] 12.664 
*END

*D_NET *24 0.320786
*CONN
*P io_in[30] I
*I *419:io_in[8] I *D user_proj_example
*CAP
1 io_in[30] 0.0418827
2 *419:io_in[8] 0.000724198
3 *24:9 0.0228529
4 *24:7 0.0221287
5 *24:5 0.0418827
6 *24:9 *28:9 0.0292887
7 *24:9 *62:9 0.139267
8 *24:9 *63:9 0.022759
*RES
1 io_in[30] *24:5 365.924 
2 *24:5 *24:7 4.5 
3 *24:7 *24:9 402.792 
4 *24:9 *419:io_in[8] 9.544 
*END

*D_NET *25 0.342671
*CONN
*P io_in[31] I
*I *419:io_in[9] I *D user_proj_example
*CAP
1 io_in[31] 0.0420182
2 *419:io_in[9] 0.000496505
3 *25:9 0.00945601
4 *25:7 0.0089595
5 *25:5 0.0420182
6 *25:9 *26:9 0.12669
7 *25:9 *27:9 0.0937935
8 *25:9 *62:9 0.0144635
9 *25:9 *64:9 0.00477508
*RES
1 io_in[31] *25:5 366.548 
2 *25:5 *25:7 4.5 
3 *25:7 *25:9 399.048 
4 *25:9 *419:io_in[9] 8.92 
*END

*D_NET *26 0.398469
*CONN
*P io_in[32] I
*I *419:io_in[10] I *D user_proj_example
*CAP
1 io_in[32] 0.0419831
2 *419:io_in[10] 0.000540628
3 *26:9 0.00178718
4 *26:7 0.00124656
5 *26:5 0.0419831
6 *26:9 *27:9 0.00229784
7 *26:9 *29:9 0.00207335
8 *26:9 *30:9 0.0263356
9 *26:9 *62:9 0.116245
10 *26:9 *67:9 0.0372871
11 *25:9 *26:9 0.12669
*RES
1 io_in[32] *26:5 366.34 
2 *26:5 *26:7 4.5 
3 *26:7 *26:9 395.304 
4 *26:9 *419:io_in[10] 9.128 
*END

*D_NET *27 0.392442
*CONN
*P io_in[33] I
*I *419:io_in[11] I *D user_proj_example
*CAP
1 io_in[33] 0.0420928
2 *419:io_in[11] 0.000495415
3 *27:9 0.00180602
4 *27:7 0.00131061
5 *27:5 0.0420928
6 *27:9 *30:9 0.057747
7 *27:9 *64:9 0.146251
8 *27:9 *65:9 0.00455403
9 *25:9 *27:9 0.0937935
10 *26:9 *27:9 0.00229784
*RES
1 io_in[33] *27:5 366.756 
2 *27:5 *27:7 4.5 
3 *27:7 *27:9 391.56 
4 *27:9 *419:io_in[11] 8.712 
*END

*D_NET *28 0.28467
*CONN
*P io_in[34] I
*I *419:io_in[12] I *D user_proj_example
*CAP
1 io_in[34] 0.0423493
2 *419:io_in[12] 0.000750066
3 *28:9 0.0235893
4 *28:7 0.0228392
5 *28:5 0.0423493
6 *28:9 *29:9 0.121906
7 *28:9 *62:9 0.0015985
8 *24:9 *28:9 0.0292887
*RES
1 io_in[34] *28:5 365.716 
2 *28:5 *28:7 4.5 
3 *28:7 *28:9 387.816 
4 *28:9 *419:io_in[12] 9.752 
*END

*D_NET *29 0.381892
*CONN
*P io_in[35] I
*I *419:io_in[13] I *D user_proj_example
*CAP
1 io_in[35] 0.0426971
2 *419:io_in[13] 0.000836596
3 *29:9 0.00677577
4 *29:7 0.00593918
5 *29:5 0.0426971
6 *29:9 *62:9 0.0173467
7 *29:9 *63:9 0.0104036
8 *29:9 *67:9 0.131216
9 *26:9 *29:9 0.00207335
10 *28:9 *29:9 0.121906
*RES
1 io_in[35] *29:5 365.924 
2 *29:5 *29:7 4.5 
3 *29:7 *29:9 384.072 
4 *29:9 *419:io_in[13] 9.544 
*END

*D_NET *30 0.325388
*CONN
*P io_in[36] I
*I *419:io_in[14] I *D user_proj_example
*CAP
1 io_in[36] 0.0430684
2 *419:io_in[14] 0.000582569
3 *30:9 0.0105795
4 *30:7 0.00999693
5 *30:5 0.0430684
6 *30:9 *31:9 0.118602
7 *30:9 *65:9 0.00603514
8 *30:9 *66:9 0.0064922
9 *30:9 *67:9 0.00288036
10 *26:9 *30:9 0.0263356
11 *27:9 *30:9 0.057747
*RES
1 io_in[36] *30:5 366.548 
2 *30:5 *30:7 4.5 
3 *30:7 *30:9 380.328 
4 *30:9 *419:io_in[14] 8.92 
*END

*D_NET *31 0.338249
*CONN
*P io_in[37] I
*I *419:io_in[15] I *D user_proj_example
*CAP
1 io_in[37] 0.0432197
2 *419:io_in[15] 0.000626691
3 *31:9 0.0125402
4 *31:7 0.0119135
5 *31:5 0.0432197
6 *31:5 *364:9 0
7 *31:9 *67:9 0.108127
8 *30:9 *31:9 0.118602
*RES
1 io_in[37] *31:5 366.34 
2 *31:5 *31:7 4.5 
3 *31:7 *31:9 376.584 
4 *31:9 *419:io_in[15] 9.128 
*END

*D_NET *32 0.322286
*CONN
*P io_in[3] I
*I *419:io_in[3] I *D user_proj_example
*CAP
1 io_in[3] 0.00689315
2 *419:io_in[3] 0.00113682
3 *32:9 0.00403388
4 *32:7 0.00289705
5 *32:5 0.00689315
6 *32:9 *61:9 0.150246
7 *32:9 *70:9 0.141593
8 *12:9 *32:9 0.00859349
*RES
1 io_in[3] *32:5 58.916 
2 *32:5 *32:7 4.5 
3 *32:7 *32:9 403 
4 *32:9 *419:io_in[3] 12.04 
*END

*D_NET *33 0.20529
*CONN
*P io_in[4] I
*I *419:io_in[4] I *D user_proj_example
*CAP
1 io_in[4] 0.00674761
2 *419:io_in[4] 0.000892535
3 *33:17 0.011935
4 *33:15 0.0114812
5 *33:9 0.00977327
6 *33:7 0.00933454
7 *33:5 0.00674761
8 *33:9 *34:9 0.00326122
9 *33:9 *39:9 0.00661636
10 *33:17 *34:17 0.110581
11 *33:17 *36:9 0.00173433
12 *33:17 *50:9 0.011689
13 *33:17 *70:9 4.39436e-05
14 *33:17 *112:9 0.0141608
15 *419:io_in[0] *33:15 0.00027255
16 *1:9 *33:17 1.90856e-05
*RES
1 io_in[4] *33:5 58.084 
2 *33:5 *33:7 4.5 
3 *33:7 *33:9 82.056 
4 *33:9 *33:15 11.392 
5 *33:15 *33:17 329.784 
6 *33:17 *419:io_in[4] 10.584 
*END

*D_NET *34 0.298061
*CONN
*P io_in[5] I
*I *419:io_in[5] I *D user_proj_example
*CAP
1 io_in[5] 0.00678231
2 *419:io_in[5] 0.000848413
3 *34:17 0.00582475
4 *34:15 0.0054286
5 *34:9 0.00733867
6 *34:7 0.00688641
7 *34:5 0.00678231
8 *34:15 *39:7 0
9 *34:17 *35:13 0.00111413
10 *34:17 *35:15 0.132271
11 *34:17 *112:9 0.00567845
12 *23:9 *34:9 0.00526445
13 *33:9 *34:9 0.00326122
14 *33:17 *34:17 0.110581
*RES
1 io_in[5] *34:5 58.292 
2 *34:5 *34:7 4.5 
3 *34:7 *34:9 61.88 
4 *34:9 *34:15 11.392 
5 *34:15 *34:17 358.696 
6 *34:17 *419:io_in[5] 10.376 
*END

*D_NET *35 0.303724
*CONN
*P io_in[6] I
*I *419:io_in[6] I *D user_proj_example
*CAP
1 io_in[6] 0.00722525
2 *419:io_in[6] 0.00080429
3 *35:15 0.0139951
4 *35:13 0.0151092
5 *35:5 0.00914367
6 *35:15 *74:9 0.121491
7 *35:15 *112:9 0.00257083
8 *34:17 *35:13 0.00111413
9 *34:17 *35:15 0.132271
*RES
1 io_in[6] *35:5 60.788 
2 *35:5 *35:13 29.828 
3 *35:13 *35:15 412.984 
4 *35:15 *419:io_in[6] 10.168 
*END

*D_NET *36 0.282217
*CONN
*P io_in[7] I
*I *419:io_in[7] I *D user_proj_example
*CAP
1 io_in[7] 0.00700234
2 *419:io_in[7] 0.000984032
3 *36:9 0.0178554
4 *36:7 0.0168714
5 *36:5 0.00700234
6 *36:9 *70:9 0.0653386
7 *36:9 *112:9 0.165428
8 *33:17 *36:9 0.00173433
*RES
1 io_in[7] *36:5 59.332 
2 *36:5 *36:7 4.5 
3 *36:7 *36:9 437.944 
4 *36:9 *419:io_in[7] 11.624 
*END

*D_NET *39 0.191465
*CONN
*P io_oeb[0] O
*I *419:io_oeb[0] O *D user_proj_example
*CAP
1 io_oeb[0] 0.00671684
2 *419:io_oeb[0] 0.00127497
3 *39:11 0.00671684
4 *39:9 0.0263766
5 *39:7 0.0276515
6 *39:9 *71:9 0
7 *1:9 *39:9 0
8 *12:9 *39:9 0.00231466
9 *23:9 *39:9 0.113798
10 *33:9 *39:9 0.00661636
11 *34:15 *39:7 0
*RES
1 *419:io_oeb[0] *39:7 12.872 
2 *39:7 *39:9 382.408 
3 *39:9 *39:11 4.5 
4 *39:11 io_oeb[0] 58.084 
*END

*D_NET *50 0.281778
*CONN
*P io_oeb[1] O
*I *419:io_oeb[1] O *D user_proj_example
*CAP
1 io_oeb[1] 0.0069396
2 *419:io_oeb[1] 0.000982922
3 *50:11 0.0069396
4 *50:9 0.00419613
5 *50:7 0.00517905
6 *50:9 *70:9 0.00952466
7 *1:9 *50:9 0.101658
8 *12:9 *50:9 0.134669
9 *33:17 *50:9 0.011689
*RES
1 *419:io_oeb[1] *50:7 11.416 
2 *50:7 *50:9 391.352 
3 *50:9 *50:11 4.5 
4 *50:11 io_oeb[1] 59.54 
*END

*D_NET *61 0.324665
*CONN
*P io_oeb[2] O
*I *419:io_oeb[2] O *D user_proj_example
*CAP
1 io_oeb[2] 0.00684903
2 *419:io_oeb[2] 0.0013272
3 *61:11 0.00684903
4 *61:9 0.00300297
5 *61:7 0.00433018
6 *61:9 *99:9 0.149108
7 *12:9 *61:9 0.00295199
8 *32:9 *61:9 0.150246
*RES
1 *419:io_oeb[2] *61:7 12.248 
2 *61:7 *61:9 400.088 
3 *61:9 *61:11 4.5 
4 *61:11 io_oeb[2] 58.708 
*END

*D_NET *62 0.380308
*CONN
*P io_oeb[30] O
*I *419:io_oeb[8] O *D user_proj_example
*CAP
1 io_oeb[30] 0.04193
2 *419:io_oeb[8] 0.000541718
3 *62:11 0.04193
4 *62:9 0.00291231
5 *62:7 0.00345403
6 *62:9 *63:9 0.000620148
7 *24:9 *62:9 0.139267
8 *25:9 *62:9 0.0144635
9 *26:9 *62:9 0.116245
10 *28:9 *62:9 0.0015985
11 *29:9 *62:9 0.0173467
*RES
1 *419:io_oeb[8] *62:7 9.336 
2 *62:7 *62:9 400.296 
3 *62:9 *62:11 4.5 
4 *62:11 io_oeb[30] 366.132 
*END

*D_NET *63 0.235567
*CONN
*P io_oeb[31] O
*I *419:io_oeb[9] O *D user_proj_example
*CAP
1 io_oeb[31] 0.053186
2 *419:io_oeb[9] 0.000616747
3 *63:11 0.053186
4 *63:9 0.0470893
5 *63:7 0.047706
6 *24:9 *63:9 0.022759
7 *29:9 *63:9 0.0104036
8 *62:9 *63:9 0.000620148
*RES
1 *419:io_oeb[9] *63:7 9.544 
2 *63:7 *63:9 396.552 
3 *63:9 *63:11 4.5 
4 *63:11 io_oeb[31] 365.924 
*END

*D_NET *64 0.394627
*CONN
*P io_oeb[32] O
*I *419:io_oeb[10] O *D user_proj_example
*CAP
1 io_oeb[32] 0.0534119
2 *419:io_oeb[10] 0.000451292
3 *64:11 0.0534119
4 *64:9 0.00580699
5 *64:7 0.00625828
6 *64:9 *65:9 0.12426
7 *25:9 *64:9 0.00477508
8 *27:9 *64:9 0.146251
*RES
1 *419:io_oeb[10] *64:7 8.504 
2 *64:7 *64:9 392.808 
3 *64:9 *64:11 4.5 
4 *64:11 io_oeb[32] 366.964 
*END

*D_NET *65 0.356505
*CONN
*P io_oeb[33] O
*I *419:io_oeb[11] O *D user_proj_example
*CAP
1 io_oeb[33] 0.0420041
2 *419:io_oeb[11] 0.000428686
3 *65:11 0.0420041
4 *65:9 0.00660598
5 *65:7 0.00703467
6 io_oeb[33] *326:9 0
7 io_oeb[33] *334:9 0.000998424
8 *65:9 *66:9 0.122579
9 *27:9 *65:9 0.00455403
10 *30:9 *65:9 0.00603514
11 *64:9 *65:9 0.12426
*RES
1 *419:io_oeb[11] *65:7 8.296 
2 *65:7 *65:9 389.064 
3 *65:9 *65:11 4.5 
4 *65:11 io_oeb[33] 367.172 
*END

*D_NET *66 0.264616
*CONN
*P io_oeb[34] O
*I *419:io_oeb[12] O *D user_proj_example
*CAP
1 io_oeb[34] 0.0428547
2 *419:io_oeb[12] 0.000406079
3 *66:11 0.0428547
4 *66:9 0.0245117
5 *66:7 0.0249178
6 *30:9 *66:9 0.0064922
7 *65:9 *66:9 0.122579
*RES
1 *419:io_oeb[12] *66:7 8.088 
2 *66:7 *66:9 385.32 
3 *66:9 *66:11 4.5 
4 *66:11 io_oeb[34] 367.38 
*END

*D_NET *67 0.376084
*CONN
*P io_oeb[35] O
*I *419:io_oeb[13] O *D user_proj_example
*CAP
1 io_oeb[35] 0.042915
2 *419:io_oeb[13] 0.000670813
3 *67:11 0.042915
4 *67:9 0.0047004
5 *67:7 0.00537121
6 *26:9 *67:9 0.0372871
7 *29:9 *67:9 0.131216
8 *30:9 *67:9 0.00288036
9 *31:9 *67:9 0.108127
*RES
1 *419:io_oeb[13] *67:7 9.336 
2 *67:7 *67:9 381.576 
3 *67:9 *67:11 4.5 
4 *67:11 io_oeb[35] 366.132 
*END

*D_NET *68 0.324999
*CONN
*P io_oeb[36] O
*I *419:io_oeb[14] O *D user_proj_example
*CAP
1 io_oeb[36] 0.000902331
2 *419:io_oeb[14] 0.0416429
3 *68:9 0.00697357
4 *68:7 0.00607124
5 *68:5 0.0416429
6 *68:9 *69:9 0.118071
7 *68:9 *104:9 0.0776497
8 *68:9 *107:9 0.032045
*RES
1 *419:io_oeb[14] *68:5 363.012 
2 *68:5 *68:7 4.5 
3 *68:7 *68:9 377.416 
4 *68:9 io_oeb[36] 12.456 
*END

*D_NET *69 0.257124
*CONN
*P io_oeb[37] O
*I *419:io_oeb[15] O *D user_proj_example
*CAP
1 io_oeb[37] 0.000903441
2 *419:io_oeb[15] 0.0415987
3 *69:9 0.0248216
4 *69:7 0.0239181
5 *69:5 0.0415987
6 *69:9 *107:9 0.00621222
7 *68:9 *69:9 0.118071
*RES
1 *419:io_oeb[15] *69:5 362.804 
2 *69:5 *69:7 4.5 
3 *69:7 *69:9 373.672 
4 *69:9 io_oeb[37] 12.664 
*END

*D_NET *70 0.31751
*CONN
*P io_oeb[3] O
*I *419:io_oeb[3] O *D user_proj_example
*CAP
1 io_oeb[3] 0.00695877
2 *419:io_oeb[3] 0.0010927
3 *70:11 0.00695877
4 *70:9 0.00460513
5 *70:7 0.00569784
6 *12:9 *70:9 0.0756968
7 *32:9 *70:9 0.141593
8 *33:17 *70:9 4.39436e-05
9 *36:9 *70:9 0.0653386
10 *50:9 *70:9 0.00952466
*RES
1 *419:io_oeb[3] *70:7 11.832 
2 *70:7 *70:9 408.824 
3 *70:9 *70:11 4.5 
4 *70:11 io_oeb[3] 59.124 
*END

*D_NET *71 0.109871
*CONN
*P io_oeb[4] O
*I *419:io_oeb[4] O *D user_proj_example
*CAP
1 io_oeb[4] 0.00619483
2 *419:io_oeb[4] 0.00136505
3 *71:11 0.00619483
4 *71:9 0.046744
5 *71:7 0.0481091
6 io_oeb[4] *237:9 0.00126352
7 *71:9 *99:9 0
8 *23:9 *71:9 0
9 *39:9 *71:9 0
*RES
1 *419:io_oeb[4] *71:7 14.536 
2 *71:7 *71:9 417.56 
3 *71:9 *71:11 4.5 
4 *71:11 io_oeb[4] 56.42 
*END

*D_NET *72 0.111196
*CONN
*P io_oeb[5] O
*I *419:io_oeb[5] O *D user_proj_example
*CAP
1 io_oeb[5] 0.00617468
2 *419:io_oeb[5] 0.00168263
3 *72:11 0.00617468
4 *72:9 0.0477407
5 *72:7 0.0494233
*RES
1 *419:io_oeb[5] *72:7 17.656 
2 *72:7 *72:9 426.088 
3 *72:9 *72:11 4.5 
4 *72:11 io_oeb[5] 53.3 
*END

*D_NET *73 0.11298
*CONN
*P io_oeb[6] O
*I *419:io_oeb[6] O *D user_proj_example
*CAP
1 io_oeb[6] 0.00583558
2 *419:io_oeb[6] 0.00200021
3 *73:11 0.00583558
4 *73:9 0.0486544
5 *73:7 0.0506546
*RES
1 *419:io_oeb[6] *73:7 20.776 
2 *73:7 *73:9 435.032 
3 *73:9 *73:11 4.5 
4 *73:11 io_oeb[6] 50.18 
*END

*D_NET *74 0.263292
*CONN
*P io_oeb[7] O
*I *419:io_oeb[7] O *D user_proj_example
*CAP
1 io_oeb[7] 0.00726935
2 *419:io_oeb[7] 0.000886019
3 *74:17 0.00763616
4 *74:9 0.0627451
5 *74:7 0.0632643
6 *74:9 *112:9 0
7 *35:15 *74:9 0.121491
*RES
1 *419:io_oeb[7] *74:7 9.96 
2 *74:7 *74:9 440.856 
3 *74:9 *74:17 16.516 
4 *74:17 io_oeb[7] 60.996 
*END

*D_NET *77 0.101133
*CONN
*P io_out[0] O
*I *419:io_out[0] O *D user_proj_example
*CAP
1 io_out[0] 0.00543218
2 *419:io_out[0] 0.00250241
3 *77:11 0.00543218
4 *77:9 0.0426318
5 *77:7 0.0451342
*RES
1 *419:io_out[0] *77:7 23.896 
2 *77:7 *77:9 379.704 
3 *77:9 *77:11 4.5 
4 *77:11 io_out[0] 47.06 
*END

*D_NET *88 0.103117
*CONN
*P io_out[1] O
*I *419:io_out[1] O *D user_proj_example
*CAP
1 io_out[1] 0.00439321
2 *419:io_out[1] 0.00357165
3 *88:9 0.0479868
4 *88:7 0.0471652
*RES
1 *419:io_out[1] *88:7 33.256 
2 *88:7 *88:9 388.44 
3 *88:9 io_out[1] 42.2 
*END

*D_NET *99 0.321669
*CONN
*P io_out[2] O
*I *419:io_out[2] O *D user_proj_example
*CAP
1 io_out[2] 0.00680491
2 *419:io_out[2] 0.00122507
3 *99:11 0.00680491
4 *99:9 0.00329093
5 *99:7 0.004516
6 *12:9 *99:9 0.00206202
7 *23:9 *99:9 0.147857
8 *61:9 *99:9 0.149108
9 *71:9 *99:9 0
*RES
1 *419:io_out[2] *99:7 12.456 
2 *99:7 *99:9 397.176 
3 *99:9 *99:11 4.5 
4 *99:11 io_out[2] 58.5 
*END

*D_NET *100 0.267343
*CONN
*P io_out[30] O
*I *419:io_out[8] O *D user_proj_example
*CAP
1 io_out[30] 0.000790409
2 *419:io_out[8] 0.0415397
3 *100:9 0.0282402
4 *100:7 0.0274498
5 *100:5 0.0415397
6 *100:9 *101:9 0.127784
*RES
1 *419:io_out[8] *100:5 363.844 
2 *100:5 *100:7 4.5 
3 *100:7 *100:9 401.336 
4 *100:9 io_out[30] 11.624 
*END

*D_NET *101 0.378369
*CONN
*P io_out[31] O
*I *419:io_out[9] O *D user_proj_example
*CAP
1 io_out[31] 0.000834531
2 *419:io_out[9] 0.0415601
3 *101:9 0.00708386
4 *101:7 0.00624933
5 *101:5 0.0415601
6 *101:9 *102:9 0.126128
7 *101:9 *105:9 0.0271689
8 *100:9 *101:9 0.127784
*RES
1 *419:io_out[9] *101:5 363.636 
2 *101:5 *101:7 4.5 
3 *101:7 *101:9 397.384 
4 *101:9 io_out[31] 11.832 
*END

*D_NET *102 0.351205
*CONN
*P io_out[32] O
*I *419:io_out[10] O *D user_proj_example
*CAP
1 io_out[32] 0.000878653
2 *419:io_out[10] 0.0415716
3 *102:9 0.0110834
4 *102:7 0.0102047
5 *102:5 0.0415716
6 *102:9 *104:9 0.0915891
7 *102:9 *105:9 0.0025244
8 *102:9 *106:9 0.0256537
9 *101:9 *102:9 0.126128
*RES
1 *419:io_out[10] *102:5 363.428 
2 *102:5 *102:7 4.5 
3 *102:7 *102:9 393.64 
4 *102:9 io_out[32] 12.04 
*END

*D_NET *103 0.172571
*CONN
*P io_out[33] O
*I *419:io_out[11] O *D user_proj_example
*CAP
1 io_out[33] 0.00172675
2 *419:io_out[11] 0.0408525
3 *103:9 0.045433
4 *103:7 0.0437062
5 *103:5 0.0408525
*RES
1 *419:io_out[11] *103:5 357.604 
2 *103:5 *103:7 4.5 
3 *103:7 *103:9 389.896 
4 *103:9 io_out[33] 17.864 
*END

*D_NET *104 0.336767
*CONN
*P io_out[34] O
*I *419:io_out[12] O *D user_proj_example
*CAP
1 io_out[34] 0.000922776
2 *419:io_out[12] 0.0416565
3 *104:9 0.0126915
4 *104:7 0.0117687
5 *104:5 0.0416565
6 *104:9 *106:9 0.00317968
7 *104:9 *107:9 0.0556524
8 *68:9 *104:9 0.0776497
9 *102:9 *104:9 0.0915891
*RES
1 *419:io_out[12] *104:5 363.22 
2 *104:5 *104:7 4.5 
3 *104:7 *104:9 386.152 
4 *104:9 io_out[34] 12.248 
*END

*D_NET *105 0.279307
*CONN
*P io_out[35] O
*I *419:io_out[13] O *D user_proj_example
*CAP
1 io_out[35] 0.000790409
2 *419:io_out[13] 0.0418104
3 *105:9 0.0229246